REMARK  8 active torsions:
REMARK  status: ('A' for Active; 'I' for Inactive)
REMARK    1  A    between atoms: C_6  and  C_13 
REMARK    2  A    between atoms: C_6  and  N_24 
REMARK    3  A    between atoms: C_9  and  C_15 
REMARK    4  A    between atoms: C_9  and  C_13 
REMARK    5  A    between atoms: N_16  and  O_20 
REMARK    6  A    between atoms: N_16  and  N_24 
REMARK    7  A    between atoms: C_17  and  C_18 
REMARK    8  A    between atoms: C_21  and  N_24 
ROOT
HETATM    1  C   UNL     1      16.228 -18.649   2.016  1.00  0.00     0.024 A 
HETATM    2  C   UNL     1      16.446 -20.421   1.923  1.00  0.00     0.005 A 
HETATM    3  C   UNL     1      19.946 -18.007   2.060  1.00  0.00     0.104 A 
HETATM    4  C   UNL     1      18.559 -15.040   1.809  1.00  0.00     0.006 A 
HETATM    5  C   UNL     1      18.031 -16.778   1.454  1.00  0.00     0.000 A 
HETATM    6  O   UNL     1      21.650 -18.646   2.099  1.00  0.00    -0.195 OA
HETATM    7  C   UNL     1      17.969 -18.759   2.111  1.00  0.00    -0.004 A 
HETATM    8  C   UNL     1      16.804 -15.746   1.381  1.00  0.00     0.000 A 
HETATM    9  N   UNL     1      16.487 -16.552   1.962  1.00  0.00     0.000 N 
HETATM   10  C   UNL     1      15.282 -19.886   1.810  1.00  0.00     0.005 A 
HETATM   11  C   UNL     1      20.018 -15.870   2.009  1.00  0.00     0.048 A 
HETATM   12  C   UNL     1      18.271 -15.542   1.929  1.00  0.00     0.006 A 
HETATM   13  N   UNL     1      17.994 -16.491   1.573  1.00  0.00     0.000 N 
ENDROOT
BRANCH   9  14
HETATM   14  O   UNL     1      14.932 -15.301   2.009  1.00  0.00     0.000 OA
HETATM   15  C   UNL     1      14.430 -13.883   1.925  1.00  0.00     0.000 A 
HETATM   16  C   UNL     1      12.975 -12.326   1.939  1.00  0.00     0.000 A 
HETATM   17  C   UNL     1      14.027 -12.550   1.736  1.00  0.00     0.000 A 
HETATM   18  N   UNL     1      14.200 -12.643   1.610  1.00  0.00     0.000 N 
HETATM   19  C   UNL     1      12.761 -11.422   1.817  1.00  0.00     0.000 A 
HETATM   20  C   UNL     1      15.138 -13.866   1.805  1.00  0.00     0.000 A 
HETATM   21  C   UNL     1      16.722 -14.850   1.746  1.00  0.00     0.000 C 
HETATM   22  C   UNL     1      15.484 -14.056   1.552  1.00  0.00     0.000 A 
HETATM   23  C   UNL     1      16.771 -15.170   1.621  1.00  0.00     0.000 A 
HETATM   24  C   UNL     1      15.482 -14.310   1.431  1.00  0.00     0.000 A 
ENDBRANCH   9  14
TORSDOF 8
