MODEL 1
REMARK VINA RESULT:      -5.0      0.000      0.000
REMARK  4 active torsions:
REMARK  status: ('A' for Active; 'I' for Inactive)
REMARK    1  A    between atoms: N_3  and  C_12 
REMARK    2  A    between atoms: S_7  and  C_15 
REMARK    3  A    between atoms: C_8  and  C_16 
REMARK    4  A    between atoms: C_8  and  C_17 
ROOT
HETATM    1  C   UNL     1      15.947  16.755  -2.298  1.00  0.00     0.005 A 
HETATM    2  C   UNL     1      17.311  15.122  -0.672  1.00  0.00    -0.031 A 
HETATM    3  C   UNL     1      17.698  17.796  -0.318  1.00  0.00     0.026 A 
HETATM    4  C   UNL     1      16.287  15.329  -1.859  1.00  0.00     0.026 A 
HETATM    5  C   UNL     1      18.034  16.332   0.118  1.00  0.00    -0.031 A 
HETATM    6  C   UNL     1      16.645  18.002  -1.538  1.00  0.00     0.005 A 
ENDROOT
BRANCH   5   7
HETATM    7  N   UNL     1      19.025  16.081   1.261  1.00  0.00     0.000 N 
HETATM    8  C   UNL     1      20.167  15.662   0.997  1.00  0.00     0.164 A 
HETATM    9  C   UNL     1      20.302  15.816   2.074  1.00  0.00     0.058 A 
HETATM   10  O   UNL     1      21.100  15.163  -0.006  1.00  0.00    -0.308 OA
HETATM   11  S   UNL     1      20.530  15.734   0.455  1.00  0.00    -0.061 SA
HETATM   12  C   UNL     1      19.480  16.144   1.223  1.00  0.00     0.100 A 
HETATM   13  C   UNL     1      19.369  16.311   3.448  1.00  0.00     0.005 C 
BRANCH   9  14
HETATM   14  C   UNL     1      21.953  15.220   2.640  1.00  0.00     0.083 A 
HETATM   15  C   UNL     1      22.911  16.327   3.128  1.00  0.00     0.116 A 
HETATM   16  O   UNL     1      24.410  15.887   3.642  1.00  0.00    -0.194 OA
HETATM   17  C   UNL     1      22.260  16.587   3.016  1.00  0.00     0.039 A 
ENDBRANCH   9  14
ENDBRANCH   5   7
TORSDOF 4
ENDMDL
MODEL 2
REMARK VINA RESULT:      -5.0      3.402      4.694
REMARK  4 active torsions:
REMARK  status: ('A' for Active; 'I' for Inactive)
REMARK    1  A    between atoms: N_3  and  C_12 
REMARK    2  A    between atoms: S_7  and  C_15 
REMARK    3  A    between atoms: C_8  and  C_16 
REMARK    4  A    between atoms: C_8  and  C_17 
ROOT
HETATM    1  C   UNL     1      14.908  21.410   3.415  1.00  0.00     0.005 A 
HETATM    2  C   UNL     1      15.038  18.836   2.686  1.00  0.00    -0.031 A 
HETATM    3  C   UNL     1      17.399  20.192   2.799  1.00  0.00     0.026 A 
HETATM    4  C   UNL     1      14.185  20.091   3.129  1.00  0.00     0.026 A 
HETATM    5  C   UNL     1      16.644  18.853   2.511  1.00  0.00    -0.031 A 
HETATM    6  C   UNL     1      16.517  21.478   3.254  1.00  0.00     0.005 A 
ENDROOT
BRANCH   5   7
HETATM    7  N   UNL     1      17.428  17.609   2.074  1.00  0.00     0.000 N 
HETATM    8  C   UNL     1      17.299  17.184   0.911  1.00  0.00     0.164 A 
HETATM    9  C   UNL     1      18.092  16.502   1.239  1.00  0.00     0.058 A 
HETATM   10  O   UNL     1      16.609  17.278  -0.370  1.00  0.00    -0.308 OA
HETATM   11  S   UNL     1      17.140  17.501   0.360  1.00  0.00    -0.061 SA
HETATM   12  C   UNL     1      17.588  17.546   1.647  1.00  0.00     0.100 A 
HETATM   13  C   UNL     1      18.998  16.149   2.675  1.00  0.00     0.005 C 
BRANCH   9  14
HETATM   14  C   UNL     1      18.472  15.239  -0.049  1.00  0.00     0.083 A 
HETATM   15  C   UNL     1      19.962  15.142  -0.444  1.00  0.00     0.116 A 
HETATM   16  O   UNL     1      20.390  14.048  -1.594  1.00  0.00    -0.194 OA
HETATM   17  C   UNL     1      19.876  15.565   0.119  1.00  0.00     0.039 A 
ENDBRANCH   9  14
ENDBRANCH   5   7
TORSDOF 4
ENDMDL
MODEL 3
REMARK VINA RESULT:      -5.0      3.302      5.229
REMARK  4 active torsions:
REMARK  status: ('A' for Active; 'I' for Inactive)
REMARK    1  A    between atoms: N_3  and  C_12 
REMARK    2  A    between atoms: S_7  and  C_15 
REMARK    3  A    between atoms: C_8  and  C_16 
REMARK    4  A    between atoms: C_8  and  C_17 
ROOT
HETATM    1  C   UNL     1      11.352  19.493  -2.198  1.00  0.00     0.005 A 
HETATM    2  C   UNL     1      13.066  18.013  -0.766  1.00  0.00    -0.031 A 
HETATM    3  C   UNL     1      13.661  18.358  -3.402  1.00  0.00     0.026 A 
HETATM    4  C   UNL     1      11.742  18.875  -0.852  1.00  0.00     0.026 A 
HETATM    5  C   UNL     1      14.045  17.735  -2.020  1.00  0.00    -0.031 A 
HETATM    6  C   UNL     1      12.301  19.243  -3.485  1.00  0.00     0.005 A 
ENDROOT
BRANCH   5   7
HETATM    7  N   UNL     1      15.316  16.888  -1.888  1.00  0.00     0.000 N 
HETATM    8  C   UNL     1      16.359  17.417  -1.459  1.00  0.00     0.164 A 
HETATM    9  C   UNL     1      16.719  16.383  -1.516  1.00  0.00     0.058 A 
HETATM   10  O   UNL     1      17.049  18.632  -1.043  1.00  0.00    -0.308 OA
HETATM   11  S   UNL     1      16.440  17.929  -1.059  1.00  0.00    -0.061 SA
HETATM   12  C   UNL     1      15.631  16.951  -1.558  1.00  0.00     0.100 A 
HETATM   13  C   UNL     1      16.146  14.827  -2.024  1.00  0.00     0.005 C 
BRANCH   9  14
HETATM   14  C   UNL     1      18.516  16.270  -1.114  1.00  0.00     0.083 A 
HETATM   15  C   UNL     1      18.871  15.258  -0.004  1.00  0.00     0.116 A 
HETATM   16  O   UNL     1      20.450  15.100   0.426  1.00  0.00    -0.194 OA
HETATM   17  C   UNL     1      18.190  15.197  -0.194  1.00  0.00     0.039 A 
ENDBRANCH   9  14
ENDBRANCH   5   7
TORSDOF 4
ENDMDL
MODEL 4
REMARK VINA RESULT:      -5.0      3.589      4.526
REMARK  4 active torsions:
REMARK  status: ('A' for Active; 'I' for Inactive)
REMARK    1  A    between atoms: N_3  and  C_12 
REMARK    2  A    between atoms: S_7  and  C_15 
REMARK    3  A    between atoms: C_8  and  C_16 
REMARK    4  A    between atoms: C_8  and  C_17 
ROOT
HETATM    1  C   UNL     1      13.223  18.729  -0.344  1.00  0.00     0.005 A 
HETATM    2  C   UNL     1      15.848  18.508   0.143  1.00  0.00    -0.031 A 
HETATM    3  C   UNL     1      14.920  17.285  -2.107  1.00  0.00     0.026 A 
HETATM    4  C   UNL     1      14.421  19.050   0.555  1.00  0.00     0.026 A 
HETATM    5  C   UNL     1      16.131  17.624  -1.178  1.00  0.00    -0.031 A 
HETATM    6  C   UNL     1      13.456  17.845  -1.680  1.00  0.00     0.005 A 
ENDROOT
BRANCH   5   7
HETATM    7  N   UNL     1      17.535  17.116  -1.533  1.00  0.00     0.000 N 
HETATM    8  C   UNL     1      17.964  16.082  -0.989  1.00  0.00     0.164 A 
HETATM    9  C   UNL     1      18.793  16.247  -1.687  1.00  0.00     0.058 A 
HETATM   10  O   UNL     1      17.769  15.036   0.008  1.00  0.00    -0.308 OA
HETATM   11  S   UNL     1      17.641  15.566  -0.745  1.00  0.00    -0.061 SA
HETATM   12  C   UNL     1      17.648  16.670  -1.546  1.00  0.00     0.100 A 
HETATM   13  C   UNL     1      19.284  17.408  -2.878  1.00  0.00     0.005 C 
BRANCH   9  14
HETATM   14  C   UNL     1      20.158  15.038  -1.414  1.00  0.00     0.083 A 
HETATM   15  C   UNL     1      20.602  14.264  -2.674  1.00  0.00     0.116 A 
HETATM   16  O   UNL     1      21.808  13.157  -2.520  1.00  0.00    -0.194 OA
HETATM   17  C   UNL     1      20.150  14.785  -2.842  1.00  0.00     0.039 A 
ENDBRANCH   9  14
ENDBRANCH   5   7
TORSDOF 4
ENDMDL
MODEL 5
REMARK VINA RESULT:      -4.9      2.404      6.076
REMARK  4 active torsions:
REMARK  status: ('A' for Active; 'I' for Inactive)
REMARK    1  A    between atoms: N_3  and  C_12 
REMARK    2  A    between atoms: S_7  and  C_15 
REMARK    3  A    between atoms: C_8  and  C_16 
REMARK    4  A    between atoms: C_8  and  C_17 
ROOT
HETATM    1  C   UNL     1      24.446  14.774   2.311  1.00  0.00     0.005 A 
HETATM    2  C   UNL     1      23.265  15.384  -0.015  1.00  0.00    -0.031 A 
HETATM    3  C   UNL     1      21.794  15.792   2.242  1.00  0.00     0.026 A 
HETATM    4  C   UNL     1      24.521  14.849   0.783  1.00  0.00     0.026 A 
HETATM    5  C   UNL     1      21.889  15.862   0.682  1.00  0.00    -0.031 A 
HETATM    6  C   UNL     1      23.087  15.242   3.057  1.00  0.00     0.005 A 
ENDROOT
BRANCH   5   7
HETATM    7  N   UNL     1      20.696  16.371  -0.136  1.00  0.00     0.000 N 
HETATM    8  C   UNL     1      19.818  15.565  -0.499  1.00  0.00     0.164 A 
HETATM    9  C   UNL     1      19.338  16.487  -0.847  1.00  0.00     0.058 A 
HETATM   10  O   UNL     1      19.371  14.180  -0.588  1.00  0.00    -0.308 OA
HETATM   11  S   UNL     1      19.625  15.000  -0.229  1.00  0.00    -0.061 SA
HETATM   12  C   UNL     1      20.271  16.194  -0.105  1.00  0.00     0.100 A 
HETATM   13  C   UNL     1      19.677  18.186  -0.925  1.00  0.00     0.005 C 
BRANCH   9  14
HETATM   14  C   UNL     1      17.788  16.131  -1.780  1.00  0.00     0.083 A 
HETATM   15  C   UNL     1      16.512  16.763  -1.185  1.00  0.00     0.116 A 
HETATM   16  O   UNL     1      15.081  16.489  -1.947  1.00  0.00    -0.194 OA
HETATM   17  C   UNL     1      17.092  17.006  -0.856  1.00  0.00     0.039 A 
ENDBRANCH   9  14
ENDBRANCH   5   7
TORSDOF 4
ENDMDL
MODEL 6
REMARK VINA RESULT:      -4.9      2.786      3.226
REMARK  4 active torsions:
REMARK  status: ('A' for Active; 'I' for Inactive)
REMARK    1  A    between atoms: N_3  and  C_12 
REMARK    2  A    between atoms: S_7  and  C_15 
REMARK    3  A    between atoms: C_8  and  C_16 
REMARK    4  A    between atoms: C_8  and  C_17 
ROOT
HETATM    1  C   UNL     1      15.383  18.031  -0.896  1.00  0.00     0.005 A 
HETATM    2  C   UNL     1      17.295  16.840  -2.347  1.00  0.00    -0.031 A 
HETATM    3  C   UNL     1      18.076  17.965   0.008  1.00  0.00     0.026 A 
HETATM    4  C   UNL     1      15.782  17.259  -2.158  1.00  0.00     0.026 A 
HETATM    5  C   UNL     1      18.465  17.178  -1.286  1.00  0.00    -0.031 A 
HETATM    6  C   UNL     1      16.520  18.393   0.198  1.00  0.00     0.005 A 
ENDROOT
BRANCH   5   7
HETATM    7  N   UNL     1      19.920  16.753  -1.517  1.00  0.00     0.000 N 
HETATM    8  C   UNL     1      20.262  15.583  -1.262  1.00  0.00     0.164 A 
HETATM    9  C   UNL     1      21.203  15.929  -1.704  1.00  0.00     0.058 A 
HETATM   10  O   UNL     1      19.904  14.283  -0.707  1.00  0.00    -0.308 OA
HETATM   11  S   UNL     1      19.910  15.030  -1.261  1.00  0.00    -0.061 SA
HETATM   12  C   UNL     1      20.044  16.330  -1.651  1.00  0.00     0.100 A 
HETATM   13  C   UNL     1      21.886  17.387  -2.348  1.00  0.00     0.005 C 
BRANCH   9  14
HETATM   14  C   UNL     1      22.519  14.641  -1.583  1.00  0.00     0.083 A 
HETATM   15  C   UNL     1      23.696  15.001  -0.651  1.00  0.00     0.116 A 
HETATM   16  O   UNL     1      24.920  13.915  -0.491  1.00  0.00    -0.194 OA
HETATM   17  C   UNL     1      23.171  15.475  -0.590  1.00  0.00     0.039 A 
ENDBRANCH   9  14
ENDBRANCH   5   7
TORSDOF 4
ENDMDL
MODEL 7
REMARK VINA RESULT:      -4.7     16.216     18.162
REMARK  4 active torsions:
REMARK  status: ('A' for Active; 'I' for Inactive)
REMARK    1  A    between atoms: N_3  and  C_12 
REMARK    2  A    between atoms: S_7  and  C_15 
REMARK    3  A    between atoms: C_8  and  C_16 
REMARK    4  A    between atoms: C_8  and  C_17 
ROOT
HETATM    1  C   UNL     1      -2.005  15.056  -2.809  1.00  0.00     0.005 A 
HETATM    2  C   UNL     1      -0.898  16.066  -0.589  1.00  0.00    -0.031 A 
HETATM    3  C   UNL     1       0.800  15.477  -2.636  1.00  0.00     0.026 A 
HETATM    4  C   UNL     1      -2.179  15.591  -1.385  1.00  0.00     0.026 A 
HETATM    5  C   UNL     1       0.603  16.022  -1.183  1.00  0.00    -0.031 A 
HETATM    6  C   UNL     1      -0.520  14.991  -3.450  1.00  0.00     0.005 A 
ENDROOT
BRANCH   5   7
HETATM    7  N   UNL     1       1.815  16.490  -0.369  1.00  0.00     0.000 N 
HETATM    8  C   UNL     1       2.075  17.706  -0.308  1.00  0.00     0.164 A 
HETATM    9  C   UNL     1       2.833  17.348   0.398  1.00  0.00     0.058 A 
HETATM   10  O   UNL     1       1.778  19.059  -0.763  1.00  0.00    -0.308 OA
HETATM   11  S   UNL     1       1.680  18.227  -0.360  1.00  0.00    -0.061 SA
HETATM   12  C   UNL     1       1.829  16.889  -0.140  1.00  0.00     0.100 A 
HETATM   13  C   UNL     1       3.419  15.844   1.033  1.00  0.00     0.005 C 
BRANCH   9  14
HETATM   14  C   UNL     1       3.933  18.717   0.961  1.00  0.00     0.083 A 
HETATM   15  C   UNL     1       4.154  18.787   2.488  1.00  0.00     0.116 A 
HETATM   16  O   UNL     1       5.113  19.984   3.079  1.00  0.00    -0.194 OA
HETATM   17  C   UNL     1       3.810  18.192   2.308  1.00  0.00     0.039 A 
ENDBRANCH   9  14
ENDBRANCH   5   7
TORSDOF 4
ENDMDL
MODEL 8
REMARK VINA RESULT:      -4.7     17.342     20.200
REMARK  4 active torsions:
REMARK  status: ('A' for Active; 'I' for Inactive)
REMARK    1  A    between atoms: N_3  and  C_12 
REMARK    2  A    between atoms: S_7  and  C_15 
REMARK    3  A    between atoms: C_8  and  C_16 
REMARK    4  A    between atoms: C_8  and  C_17 
ROOT
HETATM    1  C   UNL     1       4.235  19.331   1.294  1.00  0.00     0.005 A 
HETATM    2  C   UNL     1       2.291  18.904  -0.499  1.00  0.00    -0.031 A 
HETATM    3  C   UNL     1       2.656  16.971   1.386  1.00  0.00     0.026 A 
HETATM    4  C   UNL     1       3.454  19.813   0.069  1.00  0.00     0.026 A 
HETATM    5  C   UNL     1       1.869  17.480   0.135  1.00  0.00    -0.031 A 
HETATM    6  C   UNL     1       3.849  17.910   1.965  1.00  0.00     0.005 A 
ENDROOT
BRANCH   5   7
HETATM    7  N   UNL     1       0.735  16.631  -0.455  1.00  0.00     0.000 N 
HETATM    8  C   UNL     1      -0.434  16.828  -0.076  1.00  0.00     0.164 A 
HETATM    9  C   UNL     1      -0.646  16.093  -0.862  1.00  0.00     0.058 A 
HETATM   10  O   UNL     1      -1.340  17.519   0.834  1.00  0.00    -0.308 OA
HETATM   11  S   UNL     1      -0.718  17.370   0.159  1.00  0.00    -0.061 SA
HETATM   12  C   UNL     1       0.309  16.789  -0.526  1.00  0.00     0.100 A 
HETATM   13  C   UNL     1       0.222  15.106  -1.993  1.00  0.00     0.005 C 
BRANCH   9  14
HETATM   14  C   UNL     1      -2.431  15.634  -0.894  1.00  0.00     0.083 A 
HETATM   15  C   UNL     1      -2.724  14.143  -0.620  1.00  0.00     0.116 A 
HETATM   16  O   UNL     1      -4.290  13.642  -0.639  1.00  0.00    -0.194 OA
HETATM   17  C   UNL     1      -2.041  14.294  -0.499  1.00  0.00     0.039 A 
ENDBRANCH   9  14
ENDBRANCH   5   7
TORSDOF 4
ENDMDL
MODEL 9
REMARK VINA RESULT:      -4.6      1.776      5.876
REMARK  4 active torsions:
REMARK  status: ('A' for Active; 'I' for Inactive)
REMARK    1  A    between atoms: N_3  and  C_12 
REMARK    2  A    between atoms: S_7  and  C_15 
REMARK    3  A    between atoms: C_8  and  C_16 
REMARK    4  A    between atoms: C_8  and  C_17 
ROOT
HETATM    1  C   UNL     1      24.627  16.510   3.762  1.00  0.00     0.005 A 
HETATM    2  C   UNL     1      22.458  15.071   3.130  1.00  0.00    -0.031 A 
HETATM    3  C   UNL     1      22.312  17.755   2.685  1.00  0.00     0.026 A 
HETATM    4  C   UNL     1      23.934  15.147   3.692  1.00  0.00     0.026 A 
HETATM    5  C   UNL     1      21.620  16.354   2.620  1.00  0.00    -0.031 A 
HETATM    6  C   UNL     1      23.829  17.826   3.262  1.00  0.00     0.005 A 
ENDROOT
BRANCH   5   7
HETATM    7  N   UNL     1      20.187  16.231   2.087  1.00  0.00     0.000 N 
HETATM    8  C   UNL     1      20.004  15.894   0.902  1.00  0.00     0.164 A 
HETATM    9  C   UNL     1      18.958  15.899   1.227  1.00  0.00     0.058 A 
HETATM   10  O   UNL     1      20.583  15.599  -0.403  1.00  0.00    -0.308 OA
HETATM   11  S   UNL     1      20.378  15.534   0.501  1.00  0.00    -0.061 SA
HETATM   12  C   UNL     1      20.059  15.923   1.769  1.00  0.00     0.100 A 
HETATM   13  C   UNL     1      18.033  16.269   2.646  1.00  0.00     0.005 C 
BRANCH   9  14
HETATM   14  C   UNL     1      17.811  15.585  -0.184  1.00  0.00     0.083 A 
HETATM   15  C   UNL     1      16.917  16.782  -0.573  1.00  0.00     0.116 A 
HETATM   16  O   UNL     1      15.856  16.588  -1.814  1.00  0.00    -0.194 OA
HETATM   17  C   UNL     1      17.408  16.976  -0.098  1.00  0.00     0.039 A 
ENDBRANCH   9  14
ENDBRANCH   5   7
TORSDOF 4
ENDMDL
