MODEL 1
REMARK VINA RESULT:      -9.6      0.000      0.000
REMARK  13 active torsions:
REMARK  status: ('A' for Active; 'I' for Inactive)
REMARK    1  A    between atoms: C_1  and  C_13 
REMARK    2  A    between atoms: C_1  and  C_19 
REMARK    3  A    between atoms: C_1  and  C_10 
REMARK    4  A    between atoms: C_6  and  C_7 
REMARK    5  A    between atoms: C_6  and  C_18 
REMARK    6  A    between atoms: C_7  and  C_20 
REMARK    7  A    between atoms: C_7  and  C_15 
REMARK    8  A    between atoms: C_8  and  C_10 
REMARK    9  A    between atoms: C_9  and  O_16 
REMARK   10  A    between atoms: C_12  and  C_18 
REMARK   11  A    between atoms: C_12  and  C_13 
REMARK   12  A    between atoms: C_13  and  C_21 
REMARK   13  A    between atoms: C_15  and  C_20 
ROOT
HETATM    1  C   UNL     1       1.709  -2.816   0.265  1.00  0.00     0.026 A 
HETATM    2  C   UNL     1       1.269  -2.729  -0.270  1.00  0.00     0.005 A 
HETATM    3  C   UNL     1       1.733  -2.759   1.382  1.00  0.00     0.002 A 
HETATM    4  C   UNL     1       1.576  -2.351   0.212  1.00  0.00     0.028 C 
HETATM    5  C   UNL     1       0.882  -1.360   1.401  1.00  0.00     0.002 A 
HETATM    6  C   UNL     1      -0.663  -0.778   0.477  1.00  0.00     0.000 A 
HETATM    7  C   UNL     1      -0.010  -0.464   2.181  1.00  0.00     0.000 A 
HETATM    8  C   UNL     1       0.656  -2.222  -0.071  1.00  0.00     0.002 C 
HETATM    9  C   UNL     1       1.906  -3.973  -2.064  1.00  0.00     0.058 A 
HETATM   10  C   UNL     1      -1.312   0.259   1.223  1.00  0.00     0.000 A 
HETATM   11  C   UNL     1       1.119  -1.551   3.126  1.00  0.00     0.000 A 
HETATM   12  O   UNL     1      -0.538  -0.663   1.634  1.00  0.00     0.000 OA
HETATM   13  C   UNL     1       1.009  -1.775  -0.265  1.00  0.00     0.004 A 
HETATM   14  C   UNL     1       1.148  -1.733   1.605  1.00  0.00     0.002 A 
HETATM   15  C   UNL     1      -0.187  -0.386   2.411  1.00  0.00     0.000 A 
HETATM   16  O   UNL     1       0.899  -3.008  -1.372  1.00  0.00     0.000 OA
ENDROOT
BRANCH   1  17
HETATM   17  C   UNL     1       2.652  -3.953  -0.596  1.00  0.00     0.199 A 
HETATM   18  C   UNL     1       2.482  -3.890  -0.374  1.00  0.00     0.193 A 
HETATM   19  N   UNL     1       3.665  -5.069  -1.031  1.00  0.00     0.022 N 
HETATM   20  C   UNL     1       4.380  -5.901  -1.962  1.00  0.00     0.367 A 
HETATM   21  C   UNL     1       3.701  -5.233  -1.830  1.00  0.00     0.278 A 
HETATM   22  O   UNL     1       5.512  -7.023  -2.674  1.00  0.00    -0.188 OA
ENDBRANCH   1  17
TORSDOF 13
ENDMDL
MODEL 2
REMARK VINA RESULT:      -9.5      2.149      5.974
REMARK  13 active torsions:
REMARK  status: ('A' for Active; 'I' for Inactive)
REMARK    1  A    between atoms: C_1  and  C_13 
REMARK    2  A    between atoms: C_1  and  C_19 
REMARK    3  A    between atoms: C_1  and  C_10 
REMARK    4  A    between atoms: C_6  and  C_7 
REMARK    5  A    between atoms: C_6  and  C_18 
REMARK    6  A    between atoms: C_7  and  C_20 
REMARK    7  A    between atoms: C_7  and  C_15 
REMARK    8  A    between atoms: C_8  and  C_10 
REMARK    9  A    between atoms: C_9  and  O_16 
REMARK   10  A    between atoms: C_12  and  C_18 
REMARK   11  A    between atoms: C_12  and  C_13 
REMARK   12  A    between atoms: C_13  and  C_21 
REMARK   13  A    between atoms: C_15  and  C_20 
ROOT
HETATM    1  C   UNL     1       0.735  -2.033  -0.812  1.00  0.00     0.026 A 
HETATM    2  C   UNL     1       0.807  -2.365  -0.202  1.00  0.00     0.005 A 
HETATM    3  C   UNL     1       0.810  -2.220  -1.912  1.00  0.00     0.002 A 
HETATM    4  C   UNL     1       1.197  -2.158  -0.726  1.00  0.00     0.028 C 
HETATM    5  C   UNL     1       2.197  -3.075  -1.745  1.00  0.00     0.002 A 
HETATM    6  C   UNL     1       2.741  -4.426  -0.536  1.00  0.00     0.000 A 
HETATM    7  C   UNL     1       3.092  -4.108  -2.327  1.00  0.00     0.000 A 
HETATM    8  C   UNL     1       1.308  -3.011  -0.273  1.00  0.00     0.002 C 
HETATM    9  C   UNL     1      -0.456  -1.388   1.417  1.00  0.00     0.058 A 
HETATM   10  C   UNL     1       3.780  -5.215  -1.128  1.00  0.00     0.000 A 
HETATM   11  C   UNL     1       2.037  -3.165  -3.487  1.00  0.00     0.000 A 
HETATM   12  O   UNL     1       2.876  -4.522  -1.694  1.00  0.00     0.000 OA
HETATM   13  C   UNL     1       1.757  -2.632  -0.140  1.00  0.00     0.004 A 
HETATM   14  C   UNL     1       1.831  -2.848  -2.002  1.00  0.00     0.002 A 
HETATM   15  C   UNL     1       3.172  -4.326  -2.518  1.00  0.00     0.000 A 
HETATM   16  O   UNL     1       0.505  -2.517   0.945  1.00  0.00     0.000 OA
ENDROOT
BRANCH   1  17
HETATM   17  C   UNL     1      -0.402  -0.932  -0.164  1.00  0.00     0.199 A 
HETATM   18  C   UNL     1      -0.321  -1.109  -0.375  1.00  0.00     0.193 A 
HETATM   19  N   UNL     1      -1.422   0.236   0.072  1.00  0.00     0.022 N 
HETATM   20  C   UNL     1      -2.310   1.066   0.841  1.00  0.00     0.367 A 
HETATM   21  C   UNL     1      -1.737   0.295   0.824  1.00  0.00     0.278 A 
HETATM   22  O   UNL     1      -3.376   2.352   1.352  1.00  0.00    -0.188 OA
ENDBRANCH   1  17
TORSDOF 13
ENDMDL
MODEL 3
REMARK VINA RESULT:      -8.6      1.094      2.029
REMARK  13 active torsions:
REMARK  status: ('A' for Active; 'I' for Inactive)
REMARK    1  A    between atoms: C_1  and  C_13 
REMARK    2  A    between atoms: C_1  and  C_19 
REMARK    3  A    between atoms: C_1  and  C_10 
REMARK    4  A    between atoms: C_6  and  C_7 
REMARK    5  A    between atoms: C_6  and  C_18 
REMARK    6  A    between atoms: C_7  and  C_20 
REMARK    7  A    between atoms: C_7  and  C_15 
REMARK    8  A    between atoms: C_8  and  C_10 
REMARK    9  A    between atoms: C_9  and  O_16 
REMARK   10  A    between atoms: C_12  and  C_18 
REMARK   11  A    between atoms: C_12  and  C_13 
REMARK   12  A    between atoms: C_13  and  C_21 
REMARK   13  A    between atoms: C_15  and  C_20 
ROOT
HETATM    1  C   UNL     1       1.506  -3.148  -1.022  1.00  0.00     0.026 A 
HETATM    2  C   UNL     1       1.887  -3.142  -0.436  1.00  0.00     0.005 A 
HETATM    3  C   UNL     1       0.863  -2.475  -1.642  1.00  0.00     0.002 A 
HETATM    4  C   UNL     1       1.230  -3.101  -0.626  1.00  0.00     0.028 C 
HETATM    5  C   UNL     1       0.103  -1.868  -0.324  1.00  0.00     0.002 A 
HETATM    6  C   UNL     1       0.724  -1.264   1.358  1.00  0.00     0.000 A 
HETATM    7  C   UNL     1      -0.660  -0.731   0.250  1.00  0.00     0.000 A 
HETATM    8  C   UNL     1       1.624  -2.564   0.082  1.00  0.00     0.002 C 
HETATM    9  C   UNL     1       3.548  -4.693  -0.523  1.00  0.00     0.058 A 
HETATM   10  C   UNL     1      -0.219  -0.345   1.922  1.00  0.00     0.000 A 
HETATM   11  C   UNL     1      -0.752  -0.971  -1.561  1.00  0.00     0.000 A 
HETATM   12  O   UNL     1      -0.022  -0.648   0.702  1.00  0.00     0.000 OA
HETATM   13  C   UNL     1       1.254  -2.983   0.306  1.00  0.00     0.004 A 
HETATM   14  C   UNL     1       0.181  -1.931  -0.816  1.00  0.00     0.002 A 
HETATM   15  C   UNL     1      -0.776  -0.454   0.257  1.00  0.00     0.000 A 
HETATM   16  O   UNL     1       2.821  -3.525   0.205  1.00  0.00     0.000 OA
ENDROOT
BRANCH   1  17
HETATM   17  C   UNL     1       2.478  -4.364  -1.731  1.00  0.00     0.199 A 
HETATM   18  C   UNL     1       2.234  -4.214  -1.726  1.00  0.00     0.193 A 
HETATM   19  N   UNL     1       3.039  -5.688  -2.355  1.00  0.00     0.022 N 
HETATM   20  C   UNL     1       4.052  -6.562  -2.887  1.00  0.00     0.367 A 
HETATM   21  C   UNL     1       3.832  -5.687  -2.555  1.00  0.00     0.278 A 
HETATM   22  O   UNL     1       4.906  -7.960  -3.491  1.00  0.00    -0.188 OA
ENDBRANCH   1  17
TORSDOF 13
ENDMDL
MODEL 4
REMARK VINA RESULT:      -8.3      2.526      6.604
REMARK  13 active torsions:
REMARK  status: ('A' for Active; 'I' for Inactive)
REMARK    1  A    between atoms: C_1  and  C_13 
REMARK    2  A    between atoms: C_1  and  C_19 
REMARK    3  A    between atoms: C_1  and  C_10 
REMARK    4  A    between atoms: C_6  and  C_7 
REMARK    5  A    between atoms: C_6  and  C_18 
REMARK    6  A    between atoms: C_7  and  C_20 
REMARK    7  A    between atoms: C_7  and  C_15 
REMARK    8  A    between atoms: C_8  and  C_10 
REMARK    9  A    between atoms: C_9  and  O_16 
REMARK   10  A    between atoms: C_12  and  C_18 
REMARK   11  A    between atoms: C_12  and  C_13 
REMARK   12  A    between atoms: C_13  and  C_21 
REMARK   13  A    between atoms: C_15  and  C_20 
ROOT
HETATM    1  C   UNL     1       2.546  -5.013  -1.916  1.00  0.00     0.026 A 
HETATM    2  C   UNL     1       3.082  -4.593  -2.073  1.00  0.00     0.005 A 
HETATM    3  C   UNL     1       2.339  -6.026  -1.490  1.00  0.00     0.002 A 
HETATM    4  C   UNL     1       2.812  -5.186  -2.284  1.00  0.00     0.028 C 
HETATM    5  C   UNL     1       3.531  -6.721  -2.372  1.00  0.00     0.002 A 
HETATM    6  C   UNL     1       5.318  -6.221  -2.743  1.00  0.00     0.000 A 
HETATM    7  C   UNL     1       4.484  -7.854  -2.490  1.00  0.00     0.000 A 
HETATM    8  C   UNL     1       3.767  -5.024  -2.207  1.00  0.00     0.002 C 
HETATM    9  C   UNL     1       2.455  -2.408  -2.015  1.00  0.00     0.058 A 
HETATM   10  C   UNL     1       6.087  -7.383  -3.075  1.00  0.00     0.000 A 
HETATM   11  C   UNL     1       2.944  -8.149  -1.547  1.00  0.00     0.000 A 
HETATM   12  O   UNL     1       5.024  -7.293  -2.382  1.00  0.00     0.000 OA
HETATM   13  C   UNL     1       3.595  -5.050  -2.784  1.00  0.00     0.004 A 
HETATM   14  C   UNL     1       3.139  -6.718  -2.059  1.00  0.00     0.002 A 
HETATM   15  C   UNL     1       4.631  -8.099  -2.398  1.00  0.00     0.000 A 
HETATM   16  O   UNL     1       3.550  -3.499  -2.191  1.00  0.00     0.000 OA
ENDROOT
BRANCH   1  17
HETATM   17  C   UNL     1       1.493  -3.693  -1.647  1.00  0.00     0.199 A 
HETATM   18  C   UNL     1       1.535  -3.962  -1.737  1.00  0.00     0.193 A 
HETATM   19  N   UNL     1       0.414  -2.561  -1.769  1.00  0.00     0.022 N 
HETATM   20  C   UNL     1      -0.325  -1.402  -1.343  1.00  0.00     0.367 A 
HETATM   21  C   UNL     1       0.336  -2.065  -1.124  1.00  0.00     0.278 A 
HETATM   22  O   UNL     1      -1.382  -0.013  -1.306  1.00  0.00    -0.188 OA
ENDBRANCH   1  17
TORSDOF 13
ENDMDL
MODEL 5
REMARK VINA RESULT:      -7.0     25.099     25.751
REMARK  13 active torsions:
REMARK  status: ('A' for Active; 'I' for Inactive)
REMARK    1  A    between atoms: C_1  and  C_13 
REMARK    2  A    between atoms: C_1  and  C_19 
REMARK    3  A    between atoms: C_1  and  C_10 
REMARK    4  A    between atoms: C_6  and  C_7 
REMARK    5  A    between atoms: C_6  and  C_18 
REMARK    6  A    between atoms: C_7  and  C_20 
REMARK    7  A    between atoms: C_7  and  C_15 
REMARK    8  A    between atoms: C_8  and  C_10 
REMARK    9  A    between atoms: C_9  and  O_16 
REMARK   10  A    between atoms: C_12  and  C_18 
REMARK   11  A    between atoms: C_12  and  C_13 
REMARK   12  A    between atoms: C_13  and  C_21 
REMARK   13  A    between atoms: C_15  and  C_20 
ROOT
HETATM    1  C   UNL     1      17.928  16.507   0.526  1.00  0.00     0.026 A 
HETATM    2  C   UNL     1      18.397  16.364   0.027  1.00  0.00     0.005 A 
HETATM    3  C   UNL     1      17.873  16.890   1.575  1.00  0.00     0.002 A 
HETATM    4  C   UNL     1      18.211  16.130   0.644  1.00  0.00     0.028 C 
HETATM    5  C   UNL     1      19.140  15.970   2.054  1.00  0.00     0.002 A 
HETATM    6  C   UNL     1      20.833  15.608   1.289  1.00  0.00     0.000 A 
HETATM    7  C   UNL     1      20.243  15.796   3.034  1.00  0.00     0.000 A 
HETATM    8  C   UNL     1      19.134  16.206   0.350  1.00  0.00     0.002 C 
HETATM    9  C   UNL     1      17.465  16.522  -2.041  1.00  0.00     0.058 A 
HETATM   10  C   UNL     1      21.755  15.220   2.314  1.00  0.00     0.000 A 
HETATM   11  C   UNL     1      18.773  16.737   3.586  1.00  0.00     0.000 A 
HETATM   12  O   UNL     1      20.699  15.924   2.407  1.00  0.00     0.000 OA
HETATM   13  C   UNL     1      18.960  15.630   0.376  1.00  0.00     0.004 A 
HETATM   14  C   UNL     1      18.756  16.285   2.121  1.00  0.00     0.002 A 
HETATM   15  C   UNL     1      20.425  15.877   3.259  1.00  0.00     0.000 A 
HETATM   16  O   UNL     1      18.702  16.290  -1.126  1.00  0.00     0.000 OA
ENDROOT
BRANCH   1  17
HETATM   17  C   UNL     1      16.701  16.840  -0.618  1.00  0.00     0.199 A 
HETATM   18  C   UNL     1      16.906  16.934  -0.441  1.00  0.00     0.193 A 
HETATM   19  N   UNL     1      15.464  17.408  -1.397  1.00  0.00     0.022 N 
HETATM   20  C   UNL     1      14.502  17.470  -2.465  1.00  0.00     0.367 A 
HETATM   21  C   UNL     1      15.297  17.058  -2.116  1.00  0.00     0.278 A 
HETATM   22  O   UNL     1      13.112  17.869  -3.444  1.00  0.00    -0.188 OA
ENDBRANCH   1  17
TORSDOF 13
ENDMDL
MODEL 6
REMARK VINA RESULT:      -6.9     26.927     27.326
REMARK  13 active torsions:
REMARK  status: ('A' for Active; 'I' for Inactive)
REMARK    1  A    between atoms: C_1  and  C_13 
REMARK    2  A    between atoms: C_1  and  C_19 
REMARK    3  A    between atoms: C_1  and  C_10 
REMARK    4  A    between atoms: C_6  and  C_7 
REMARK    5  A    between atoms: C_6  and  C_18 
REMARK    6  A    between atoms: C_7  and  C_20 
REMARK    7  A    between atoms: C_7  and  C_15 
REMARK    8  A    between atoms: C_8  and  C_10 
REMARK    9  A    between atoms: C_9  and  O_16 
REMARK   10  A    between atoms: C_12  and  C_18 
REMARK   11  A    between atoms: C_12  and  C_13 
REMARK   12  A    between atoms: C_13  and  C_21 
REMARK   13  A    between atoms: C_15  and  C_20 
ROOT
HETATM    1  C   UNL     1      21.674  15.531   1.909  1.00  0.00     0.026 A 
HETATM    2  C   UNL     1      21.722  15.683   2.589  1.00  0.00     0.005 A 
HETATM    3  C   UNL     1      21.079  15.805   1.002  1.00  0.00     0.002 A 
HETATM    4  C   UNL     1      21.285  15.378   2.157  1.00  0.00     0.028 C 
HETATM    5  C   UNL     1      19.665  15.758   1.827  1.00  0.00     0.002 A 
HETATM    6  C   UNL     1      19.136  16.425   3.517  1.00  0.00     0.000 A 
HETATM    7  C   UNL     1      18.258  16.229   1.898  1.00  0.00     0.000 A 
HETATM    8  C   UNL     1      21.010  15.967   2.880  1.00  0.00     0.002 C 
HETATM    9  C   UNL     1      23.826  15.307   3.366  1.00  0.00     0.058 A 
HETATM   10  C   UNL     1      17.717  16.617   3.540  1.00  0.00     0.000 A 
HETATM   11  C   UNL     1      19.037  16.167   0.244  1.00  0.00     0.000 A 
HETATM   12  O   UNL     1      18.510  16.599   2.545  1.00  0.00     0.000 OA
HETATM   13  C   UNL     1      20.871  15.393   3.000  1.00  0.00     0.004 A 
HETATM   14  C   UNL     1      19.952  15.800   1.417  1.00  0.00     0.002 A 
HETATM   15  C   UNL     1      18.020  16.396   1.822  1.00  0.00     0.000 A 
HETATM   16  O   UNL     1      22.368  15.807   3.587  1.00  0.00     0.000 OA
ENDROOT
BRANCH   1  17
HETATM   17  C   UNL     1      23.331  15.123   1.806  1.00  0.00     0.199 A 
HETATM   18  C   UNL     1      23.108  15.279   1.715  1.00  0.00     0.193 A 
HETATM   19  N   UNL     1      24.771  14.727   1.328  1.00  0.00     0.022 N 
HETATM   20  C   UNL     1      26.150  14.348   1.492  1.00  0.00     0.367 A 
HETATM   21  C   UNL     1      25.331  14.622   1.914  1.00  0.00     0.278 A 
HETATM   22  O   UNL     1      27.781  13.801   1.194  1.00  0.00    -0.188 OA
ENDBRANCH   1  17
TORSDOF 13
ENDMDL
MODEL 7
REMARK VINA RESULT:      -6.8     23.621     24.210
REMARK  13 active torsions:
REMARK  status: ('A' for Active; 'I' for Inactive)
REMARK    1  A    between atoms: C_1  and  C_13 
REMARK    2  A    between atoms: C_1  and  C_19 
REMARK    3  A    between atoms: C_1  and  C_10 
REMARK    4  A    between atoms: C_6  and  C_7 
REMARK    5  A    between atoms: C_6  and  C_18 
REMARK    6  A    between atoms: C_7  and  C_20 
REMARK    7  A    between atoms: C_7  and  C_15 
REMARK    8  A    between atoms: C_8  and  C_10 
REMARK    9  A    between atoms: C_9  and  O_16 
REMARK   10  A    between atoms: C_12  and  C_18 
REMARK   11  A    between atoms: C_12  and  C_13 
REMARK   12  A    between atoms: C_13  and  C_21 
REMARK   13  A    between atoms: C_15  and  C_20 
ROOT
HETATM    1  C   UNL     1      14.084  17.690  -1.882  1.00  0.00     0.026 A 
HETATM    2  C   UNL     1      14.250  18.070  -1.320  1.00  0.00     0.005 A 
HETATM    3  C   UNL     1      13.406  17.712  -2.771  1.00  0.00     0.002 A 
HETATM    4  C   UNL     1      13.719  17.711  -1.562  1.00  0.00     0.028 C 
HETATM    5  C   UNL     1      12.133  18.225  -1.877  1.00  0.00     0.002 A 
HETATM    6  C   UNL     1      11.949  19.550  -0.538  1.00  0.00     0.000 A 
HETATM    7  C   UNL     1      10.827  18.932  -1.876  1.00  0.00     0.000 A 
HETATM    8  C   UNL     1      13.632  18.563  -1.102  1.00  0.00     0.002 C 
HETATM    9  C   UNL     1      16.376  17.637  -0.636  1.00  0.00     0.058 A 
HETATM   10  C   UNL     1      10.586  19.986  -0.473  1.00  0.00     0.000 A 
HETATM   11  C   UNL     1      11.342  18.129  -3.437  1.00  0.00     0.000 A 
HETATM   12  O   UNL     1      11.217  19.462  -1.446  1.00  0.00     0.000 OA
HETATM   13  C   UNL     1      13.437  18.109  -0.759  1.00  0.00     0.004 A 
HETATM   14  C   UNL     1      12.361  18.062  -2.294  1.00  0.00     0.002 A 
HETATM   15  C   UNL     1      10.605  19.099  -1.991  1.00  0.00     0.000 A 
HETATM   16  O   UNL     1      15.046  18.435  -0.505  1.00  0.00     0.000 OA
ENDROOT
BRANCH   1  17
HETATM   17  C   UNL     1      15.641  16.984  -1.957  1.00  0.00     0.199 A 
HETATM   18  C   UNL     1      15.381  17.024  -2.072  1.00  0.00     0.193 A 
HETATM   19  N   UNL     1      16.862  16.012  -2.105  1.00  0.00     0.022 N 
HETATM   20  C   UNL     1      18.248  15.631  -2.054  1.00  0.00     0.367 A 
HETATM   21  C   UNL     1      17.600  16.335  -1.967  1.00  0.00     0.278 A 
HETATM   22  O   UNL     1      19.731  14.707  -2.055  1.00  0.00    -0.188 OA
ENDBRANCH   1  17
TORSDOF 13
ENDMDL
MODEL 8
REMARK VINA RESULT:      -6.8     26.885     27.290
REMARK  13 active torsions:
REMARK  status: ('A' for Active; 'I' for Inactive)
REMARK    1  A    between atoms: C_1  and  C_13 
REMARK    2  A    between atoms: C_1  and  C_19 
REMARK    3  A    between atoms: C_1  and  C_10 
REMARK    4  A    between atoms: C_6  and  C_7 
REMARK    5  A    between atoms: C_6  and  C_18 
REMARK    6  A    between atoms: C_7  and  C_20 
REMARK    7  A    between atoms: C_7  and  C_15 
REMARK    8  A    between atoms: C_8  and  C_10 
REMARK    9  A    between atoms: C_9  and  O_16 
REMARK   10  A    between atoms: C_12  and  C_18 
REMARK   11  A    between atoms: C_12  and  C_13 
REMARK   12  A    between atoms: C_13  and  C_21 
REMARK   13  A    between atoms: C_15  and  C_20 
ROOT
HETATM    1  C   UNL     1      21.440  15.672   2.500  1.00  0.00     0.026 A 
HETATM    2  C   UNL     1      21.589  15.467   1.849  1.00  0.00     0.005 A 
HETATM    3  C   UNL     1      20.585  15.710   3.220  1.00  0.00     0.002 A 
HETATM    4  C   UNL     1      21.213  15.944   2.167  1.00  0.00     0.028 C 
HETATM    5  C   UNL     1      19.545  16.236   2.069  1.00  0.00     0.002 A 
HETATM    6  C   UNL     1      19.227  15.707   0.280  1.00  0.00     0.000 A 
HETATM    7  C   UNL     1      18.129  16.334   1.633  1.00  0.00     0.000 A 
HETATM    8  C   UNL     1      20.916  15.457   1.380  1.00  0.00     0.002 C 
HETATM    9  C   UNL     1      23.795  14.956   1.636  1.00  0.00     0.058 A 
HETATM   10  C   UNL     1      17.895  16.070  -0.103  1.00  0.00     0.000 A 
HETATM   11  C   UNL     1      18.444  16.208   3.431  1.00  0.00     0.000 A 
HETATM   12  O   UNL     1      18.366  15.853   1.059  1.00  0.00     0.000 OA
HETATM   13  C   UNL     1      21.044  16.030   1.247  1.00  0.00     0.004 A 
HETATM   14  C   UNL     1      19.684  16.116   2.536  1.00  0.00     0.002 A 
HETATM   15  C   UNL     1      17.834  16.276   1.642  1.00  0.00     0.000 A 
HETATM   16  O   UNL     1      22.359  15.037   1.041  1.00  0.00     0.000 OA
ENDROOT
BRANCH   1  17
HETATM   17  C   UNL     1      23.048  15.422   3.027  1.00  0.00     0.199 A 
HETATM   18  C   UNL     1      22.766  15.380   3.062  1.00  0.00     0.193 A 
HETATM   19  N   UNL     1      24.373  15.304   3.857  1.00  0.00     0.022 N 
HETATM   20  C   UNL     1      25.783  15.092   4.054  1.00  0.00     0.367 A 
HETATM   21  C   UNL     1      25.043  15.092   3.440  1.00  0.00     0.278 A 
HETATM   22  O   UNL     1      27.380  15.010   4.754  1.00  0.00    -0.188 OA
ENDBRANCH   1  17
TORSDOF 13
ENDMDL
