MODEL 1
REMARK VINA RESULT:      -9.4      0.000      0.000
REMARK  10 active torsions:
REMARK  status: ('A' for Active; 'I' for Inactive)
REMARK    1  A    between atoms: O_2  and  C_3 
REMARK    2  A    between atoms: C_3  and  C_20 
REMARK    3  A    between atoms: C_3  and  C_22 
REMARK    4  A    between atoms: C_5  and  C_12 
REMARK    5  A    between atoms: C_9  and  C_18 
REMARK    6  A    between atoms: C_11  and  C_12 
REMARK    7  A    between atoms: C_12  and  C_13 
REMARK    8  A    between atoms: C_17  and  C_19 
REMARK    9  A    between atoms: C_18  and  O_21 
REMARK   10  A    between atoms: C_19  and  C_23 
ROOT
HETATM    1  C   UNL     1       9.067  -4.468  -4.340  1.00  0.00     0.076 A 
HETATM    2  O   UNL     1       7.021  -2.902  -4.709  1.00  0.00     0.000 OA
HETATM    3  C   UNL     1       7.922  -4.413  -3.925  1.00  0.00     0.049 A 
HETATM    4  C   UNL     1       4.697  -6.478  -2.154  1.00  0.00     0.142 C 
HETATM    5  C   UNL     1       6.928  -5.275  -3.366  1.00  0.00     0.076 A 
HETATM    6  O   UNL     1       3.408  -4.058  -3.395  1.00  0.00     0.000 OA
HETATM    7  O   UNL     1      11.312  -6.372  -3.291  1.00  0.00    -0.198 OA
HETATM    8  C   UNL     1       3.247  -2.246  -4.504  1.00  0.00     0.000 C 
HETATM    9  C   UNL     1       3.997  -4.665  -3.214  1.00  0.00     0.030 A 
HETATM   10  C   UNL     1       6.658  -5.111  -4.090  1.00  0.00     0.024 A 
HETATM   11  C   UNL     1       9.507  -5.023  -4.180  1.00  0.00     0.082 A 
HETATM   12  C   UNL     1       7.868  -4.867  -4.166  1.00  0.00     0.028 A 
HETATM   13  C   UNL     1       6.010  -4.064  -4.397  1.00  0.00     0.003 A 
HETATM   14  C   UNL     1      10.625  -4.639  -4.323  1.00  0.00     0.201 A 
HETATM   15  O   UNL     1      11.346  -3.608  -4.840  1.00  0.00    -0.336 OA
HETATM   16  O   UNL     1       5.873  -6.665  -2.322  1.00  0.00    -0.361 OA
HETATM   17  C   UNL     1       4.898  -4.254  -4.373  1.00  0.00     0.004 A 
HETATM   18  C   UNL     1       4.513  -3.737  -4.514  1.00  0.00     0.003 A 
HETATM   19  C   UNL     1       5.703  -3.648  -4.476  1.00  0.00     0.003 A 
HETATM   20  C   UNL     1       9.901  -3.789  -4.637  1.00  0.00     0.128 A 
HETATM   21  O   UNL     1       3.180  -4.028  -3.629  1.00  0.00     0.000 OA
HETATM   22  C   UNL     1       8.172  -5.436  -3.982  1.00  0.00     0.017 A 
HETATM   23  C   UNL     1       7.030  -4.479  -4.026  1.00  0.00     0.030 A 
ENDROOT
TORSDOF 10
ENDMDL
MODEL 2
REMARK VINA RESULT:      -9.1      3.855      7.145
REMARK  10 active torsions:
REMARK  status: ('A' for Active; 'I' for Inactive)
REMARK    1  A    between atoms: O_2  and  C_3 
REMARK    2  A    between atoms: C_3  and  C_20 
REMARK    3  A    between atoms: C_3  and  C_22 
REMARK    4  A    between atoms: C_5  and  C_12 
REMARK    5  A    between atoms: C_9  and  C_18 
REMARK    6  A    between atoms: C_11  and  C_12 
REMARK    7  A    between atoms: C_12  and  C_13 
REMARK    8  A    between atoms: C_17  and  C_19 
REMARK    9  A    between atoms: C_18  and  O_21 
REMARK   10  A    between atoms: C_19  and  C_23 
ROOT
HETATM    1  C   UNL     1      10.237  -2.256  -5.174  1.00  0.00     0.076 A 
HETATM    2  O   UNL     1      12.795  -2.333  -5.647  1.00  0.00     0.000 OA
HETATM    3  C   UNL     1      11.120  -3.090  -5.071  1.00  0.00     0.049 A 
HETATM    4  C   UNL     1      12.408  -6.679  -3.264  1.00  0.00     0.142 C 
HETATM    5  C   UNL     1      11.408  -4.283  -4.336  1.00  0.00     0.076 A 
HETATM    6  O   UNL     1      14.956  -5.410  -4.240  1.00  0.00     0.000 OA
HETATM    7  O   UNL     1       7.175  -2.771  -4.818  1.00  0.00    -0.198 OA
HETATM    8  C   UNL     1      16.233  -3.954  -5.128  1.00  0.00     0.000 C 
HETATM    9  C   UNL     1      14.127  -5.502  -4.012  1.00  0.00     0.030 A 
HETATM   10  C   UNL     1      11.900  -3.744  -4.034  1.00  0.00     0.024 A 
HETATM   11  C   UNL     1       9.563  -2.380  -4.934  1.00  0.00     0.082 A 
HETATM   12  C   UNL     1      11.015  -3.065  -4.566  1.00  0.00     0.028 A 
HETATM   13  C   UNL     1      13.019  -3.427  -4.540  1.00  0.00     0.003 A 
HETATM   14  C   UNL     1       8.839  -1.639  -5.519  1.00  0.00     0.201 A 
HETATM   15  O   UNL     1       8.850  -0.547  -6.329  1.00  0.00    -0.336 OA
HETATM   16  O   UNL     1      11.371  -6.082  -3.389  1.00  0.00    -0.361 OA
HETATM   17  C   UNL     1      13.861  -4.002  -4.057  1.00  0.00     0.004 A 
HETATM   18  C   UNL     1      14.466  -3.882  -4.293  1.00  0.00     0.003 A 
HETATM   19  C   UNL     1      13.495  -3.358  -4.747  1.00  0.00     0.003 A 
HETATM   20  C   UNL     1       9.930  -1.414  -5.838  1.00  0.00     0.128 A 
HETATM   21  O   UNL     1      15.223  -5.306  -4.080  1.00  0.00     0.000 OA
HETATM   22  C   UNL     1      10.442  -3.273  -4.284  1.00  0.00     0.017 A 
HETATM   23  C   UNL     1      11.868  -3.423  -4.695  1.00  0.00     0.030 A 
ENDROOT
TORSDOF 10
ENDMDL
MODEL 3
REMARK VINA RESULT:      -9.1      1.991      4.542
REMARK  10 active torsions:
REMARK  status: ('A' for Active; 'I' for Inactive)
REMARK    1  A    between atoms: O_2  and  C_3 
REMARK    2  A    between atoms: C_3  and  C_20 
REMARK    3  A    between atoms: C_3  and  C_22 
REMARK    4  A    between atoms: C_5  and  C_12 
REMARK    5  A    between atoms: C_9  and  C_18 
REMARK    6  A    between atoms: C_11  and  C_12 
REMARK    7  A    between atoms: C_12  and  C_13 
REMARK    8  A    between atoms: C_17  and  C_19 
REMARK    9  A    between atoms: C_18  and  O_21 
REMARK   10  A    between atoms: C_19  and  C_23 
ROOT
HETATM    1  C   UNL     1       6.328  -2.948  -4.613  1.00  0.00     0.076 A 
HETATM    2  O   UNL     1       8.516  -4.212  -3.992  1.00  0.00     0.000 OA
HETATM    3  C   UNL     1       6.655  -4.114  -4.480  1.00  0.00     0.049 A 
HETATM    4  C   UNL     1       5.405  -8.085  -3.793  1.00  0.00     0.142 C 
HETATM    5  C   UNL     1       6.061  -5.383  -4.197  1.00  0.00     0.076 A 
HETATM    6  O   UNL     1       8.331  -8.120  -3.090  1.00  0.00     0.000 OA
HETATM    7  O   UNL     1       3.607  -1.923  -5.760  1.00  0.00    -0.198 OA
HETATM    8  C   UNL     1      10.301  -7.378  -2.763  1.00  0.00     0.000 C 
HETATM    9  C   UNL     1       7.541  -7.821  -3.274  1.00  0.00     0.030 A 
HETATM   10  C   UNL     1       6.467  -5.208  -3.542  1.00  0.00     0.024 A 
HETATM   11  C   UNL     1       5.639  -2.754  -4.735  1.00  0.00     0.082 A 
HETATM   12  C   UNL     1       6.314  -4.112  -4.093  1.00  0.00     0.028 A 
HETATM   13  C   UNL     1       7.709  -5.418  -3.388  1.00  0.00     0.003 A 
HETATM   14  C   UNL     1       5.659  -1.677  -5.240  1.00  0.00     0.201 A 
HETATM   15  O   UNL     1       6.488  -0.631  -5.501  1.00  0.00    -0.336 OA
HETATM   16  O   UNL     1       4.888  -7.042  -4.097  1.00  0.00    -0.361 OA
HETATM   17  C   UNL     1       7.892  -6.397  -2.858  1.00  0.00     0.004 A 
HETATM   18  C   UNL     1       8.524  -6.560  -2.762  1.00  0.00     0.003 A 
HETATM   19  C   UNL     1       8.209  -5.565  -3.341  1.00  0.00     0.003 A 
HETATM   20  C   UNL     1       6.747  -1.979  -4.977  1.00  0.00     0.128 A 
HETATM   21  O   UNL     1       8.487  -8.186  -2.809  1.00  0.00     0.000 OA
HETATM   22  C   UNL     1       5.649  -4.047  -4.170  1.00  0.00     0.017 A 
HETATM   23  C   UNL     1       6.910  -4.823  -3.986  1.00  0.00     0.030 A 
ENDROOT
TORSDOF 10
ENDMDL
MODEL 4
REMARK VINA RESULT:      -8.9      1.068      2.565
REMARK  10 active torsions:
REMARK  status: ('A' for Active; 'I' for Inactive)
REMARK    1  A    between atoms: O_2  and  C_3 
REMARK    2  A    between atoms: C_3  and  C_20 
REMARK    3  A    between atoms: C_3  and  C_22 
REMARK    4  A    between atoms: C_5  and  C_12 
REMARK    5  A    between atoms: C_9  and  C_18 
REMARK    6  A    between atoms: C_11  and  C_12 
REMARK    7  A    between atoms: C_12  and  C_13 
REMARK    8  A    between atoms: C_17  and  C_19 
REMARK    9  A    between atoms: C_18  and  O_21 
REMARK   10  A    between atoms: C_19  and  C_23 
ROOT
HETATM    1  C   UNL     1       9.263  -5.286  -4.114  1.00  0.00     0.076 A 
HETATM    2  O   UNL     1       7.333  -6.983  -3.701  1.00  0.00     0.000 OA
HETATM    3  C   UNL     1       8.049  -5.274  -4.227  1.00  0.00     0.049 A 
HETATM    4  C   UNL     1       4.541  -2.943  -4.479  1.00  0.00     0.142 C 
HETATM    5  C   UNL     1       6.971  -4.336  -4.254  1.00  0.00     0.076 A 
HETATM    6  O   UNL     1       3.540  -5.669  -3.689  1.00  0.00     0.000 OA
HETATM    7  O   UNL     1      11.224  -3.065  -5.111  1.00  0.00    -0.198 OA
HETATM    8  C   UNL     1       3.612  -7.723  -3.131  1.00  0.00     0.000 C 
HETATM    9  C   UNL     1       4.080  -5.009  -3.833  1.00  0.00     0.030 A 
HETATM   10  C   UNL     1       6.888  -4.707  -3.561  1.00  0.00     0.024 A 
HETATM   11  C   UNL     1       9.664  -4.689  -4.216  1.00  0.00     0.082 A 
HETATM   12  C   UNL     1       8.070  -4.909  -3.863  1.00  0.00     0.028 A 
HETATM   13  C   UNL     1       6.309  -5.826  -3.410  1.00  0.00     0.003 A 
HETATM   14  C   UNL     1      10.770  -5.047  -4.471  1.00  0.00     0.201 A 
HETATM   15  O   UNL     1      11.568  -6.148  -4.463  1.00  0.00    -0.336 OA
HETATM   16  O   UNL     1       5.726  -2.757  -4.565  1.00  0.00    -0.361 OA
HETATM   17  C   UNL     1       5.233  -5.687  -3.101  1.00  0.00     0.004 A 
HETATM   18  C   UNL     1       4.882  -6.240  -3.019  1.00  0.00     0.003 A 
HETATM   19  C   UNL     1       6.020  -6.261  -3.376  1.00  0.00     0.003 A 
HETATM   20  C   UNL     1      10.126  -5.983  -4.239  1.00  0.00     0.128 A 
HETATM   21  O   UNL     1       3.377  -5.773  -3.423  1.00  0.00     0.000 OA
HETATM   22  C   UNL     1       8.334  -4.297  -3.949  1.00  0.00     0.017 A 
HETATM   23  C   UNL     1       7.214  -5.279  -3.892  1.00  0.00     0.030 A 
ENDROOT
TORSDOF 10
ENDMDL
MODEL 5
REMARK VINA RESULT:      -8.8      1.323      5.637
REMARK  10 active torsions:
REMARK  status: ('A' for Active; 'I' for Inactive)
REMARK    1  A    between atoms: O_2  and  C_3 
REMARK    2  A    between atoms: C_3  and  C_20 
REMARK    3  A    between atoms: C_3  and  C_22 
REMARK    4  A    between atoms: C_5  and  C_12 
REMARK    5  A    between atoms: C_9  and  C_18 
REMARK    6  A    between atoms: C_11  and  C_12 
REMARK    7  A    between atoms: C_12  and  C_13 
REMARK    8  A    between atoms: C_17  and  C_19 
REMARK    9  A    between atoms: C_18  and  O_21 
REMARK   10  A    between atoms: C_19  and  C_23 
ROOT
HETATM    1  C   UNL     1       6.266  -5.349  -3.393  1.00  0.00     0.076 A 
HETATM    2  O   UNL     1       8.758  -6.008  -3.035  1.00  0.00     0.000 OA
HETATM    3  C   UNL     1       7.343  -4.789  -3.507  1.00  0.00     0.049 A 
HETATM    4  C   UNL     1       9.518  -1.619  -5.245  1.00  0.00     0.142 C 
HETATM    5  C   UNL     1       7.927  -3.691  -4.212  1.00  0.00     0.076 A 
HETATM    6  O   UNL     1      11.643  -3.590  -4.431  1.00  0.00     0.000 OA
HETATM    7  O   UNL     1       3.459  -3.988  -3.590  1.00  0.00    -0.198 OA
HETATM    8  C   UNL     1      12.492  -5.382  -3.655  1.00  0.00     0.000 C 
HETATM    9  C   UNL     1      10.865  -3.260  -4.617  1.00  0.00     0.030 A 
HETATM   10  C   UNL     1       8.238  -4.330  -4.556  1.00  0.00     0.024 A 
HETATM   11  C   UNL     1       5.645  -5.032  -3.598  1.00  0.00     0.082 A 
HETATM   12  C   UNL     1       7.217  -4.761  -4.007  1.00  0.00     0.028 A 
HETATM   13  C   UNL     1       9.241  -4.969  -4.112  1.00  0.00     0.003 A 
HETATM   14  C   UNL     1       4.763  -5.569  -3.006  1.00  0.00     0.201 A 
HETATM   15  O   UNL     1       4.497  -6.658  -2.236  1.00  0.00    -0.336 OA
HETATM   16  O   UNL     1       8.361  -1.910  -5.093  1.00  0.00    -0.361 OA
HETATM   17  C   UNL     1      10.192  -4.628  -4.613  1.00  0.00     0.004 A 
HETATM   18  C   UNL     1      10.748  -4.922  -4.410  1.00  0.00     0.003 A 
HETATM   19  C   UNL     1       9.685  -5.177  -3.930  1.00  0.00     0.003 A 
HETATM   20  C   UNL     1       5.759  -6.103  -2.745  1.00  0.00     0.128 A 
HETATM   21  O   UNL     1      11.864  -3.756  -4.607  1.00  0.00     0.000 OA
HETATM   22  C   UNL     1       6.716  -4.389  -4.255  1.00  0.00     0.017 A 
HETATM   23  C   UNL     1       8.140  -4.660  -3.905  1.00  0.00     0.030 A 
ENDROOT
TORSDOF 10
ENDMDL
MODEL 6
REMARK VINA RESULT:      -7.9     15.790     18.256
REMARK  10 active torsions:
REMARK  status: ('A' for Active; 'I' for Inactive)
REMARK    1  A    between atoms: O_2  and  C_3 
REMARK    2  A    between atoms: C_3  and  C_20 
REMARK    3  A    between atoms: C_3  and  C_22 
REMARK    4  A    between atoms: C_5  and  C_12 
REMARK    5  A    between atoms: C_9  and  C_18 
REMARK    6  A    between atoms: C_11  and  C_12 
REMARK    7  A    between atoms: C_12  and  C_13 
REMARK    8  A    between atoms: C_17  and  C_19 
REMARK    9  A    between atoms: C_18  and  O_21 
REMARK   10  A    between atoms: C_19  and  C_23 
ROOT
HETATM    1  C   UNL     1      23.121  -1.034  -5.543  1.00  0.00     0.076 A 
HETATM    2  O   UNL     1      22.528  -0.082  -3.195  1.00  0.00     0.000 OA
HETATM    3  C   UNL     1      23.404  -0.032  -4.910  1.00  0.00     0.049 A 
HETATM    4  C   UNL     1      26.088   3.180  -4.378  1.00  0.00     0.142 C 
HETATM    5  C   UNL     1      24.433   0.959  -4.847  1.00  0.00     0.076 A 
HETATM    6  O   UNL     1      24.624   3.023  -1.753  1.00  0.00     0.000 OA
HETATM    7  O   UNL     1      23.807  -1.562  -8.547  1.00  0.00    -0.198 OA
HETATM    8  C   UNL     1      23.273   2.293  -0.277  1.00  0.00     0.000 C 
HETATM    9  C   UNL     1      24.922   2.803  -2.535  1.00  0.00     0.030 A 
HETATM   10  C   UNL     1      24.535   0.531  -4.190  1.00  0.00     0.024 A 
HETATM   11  C   UNL     1      23.430  -1.183  -6.184  1.00  0.00     0.082 A 
HETATM   12  C   UNL     1      23.886  -0.218  -4.930  1.00  0.00     0.028 A 
HETATM   13  C   UNL     1      23.887   0.703  -3.113  1.00  0.00     0.003 A 
HETATM   14  C   UNL     1      22.703  -1.927  -6.761  1.00  0.00     0.201 A 
HETATM   15  O   UNL     1      21.612  -2.718  -6.576  1.00  0.00    -0.336 OA
HETATM   16  O   UNL     1      25.862   2.356  -5.225  1.00  0.00    -0.361 OA
HETATM   17  C   UNL     1      24.461   1.356  -2.395  1.00  0.00     0.004 A 
HETATM   18  C   UNL     1      24.163   1.487  -1.820  1.00  0.00     0.003 A 
HETATM   19  C   UNL     1      23.639   0.835  -2.671  1.00  0.00     0.003 A 
HETATM   20  C   UNL     1      22.262  -1.727  -5.708  1.00  0.00     0.128 A 
HETATM   21  O   UNL     1      24.730   2.965  -1.448  1.00  0.00     0.000 OA
HETATM   22  C   UNL     1      24.253  -0.269  -5.490  1.00  0.00     0.017 A 
HETATM   23  C   UNL     1      23.812   0.398  -4.232  1.00  0.00     0.030 A 
ENDROOT
TORSDOF 10
ENDMDL
MODEL 7
REMARK VINA RESULT:      -7.8     12.916     15.400
REMARK  10 active torsions:
REMARK  status: ('A' for Active; 'I' for Inactive)
REMARK    1  A    between atoms: O_2  and  C_3 
REMARK    2  A    between atoms: C_3  and  C_20 
REMARK    3  A    between atoms: C_3  and  C_22 
REMARK    4  A    between atoms: C_5  and  C_12 
REMARK    5  A    between atoms: C_9  and  C_18 
REMARK    6  A    between atoms: C_11  and  C_12 
REMARK    7  A    between atoms: C_12  and  C_13 
REMARK    8  A    between atoms: C_17  and  C_19 
REMARK    9  A    between atoms: C_18  and  O_21 
REMARK   10  A    between atoms: C_19  and  C_23 
ROOT
HETATM    1  C   UNL     1      18.968  -0.581   7.356  1.00  0.00     0.076 A 
HETATM    2  O   UNL     1      18.295  -3.029   6.786  1.00  0.00     0.000 OA
HETATM    3  C   UNL     1      18.586  -1.173   6.361  1.00  0.00     0.049 A 
HETATM    4  C   UNL     1      16.803  -0.904   2.546  1.00  0.00     0.142 C 
HETATM    5  C   UNL     1      17.934  -0.901   5.118  1.00  0.00     0.076 A 
HETATM    6  O   UNL     1      16.438  -3.792   3.309  1.00  0.00     0.000 OA
HETATM    7  O   UNL     1      20.028   2.358   7.449  1.00  0.00    -0.198 OA
HETATM    8  C   UNL     1      16.522  -5.553   4.505  1.00  0.00     0.000 C 
HETATM    9  C   UNL     1      16.603  -2.946   3.377  1.00  0.00     0.030 A 
HETATM   10  C   UNL     1      17.391  -1.289   5.541  1.00  0.00     0.024 A 
HETATM   11  C   UNL     1      19.058   0.140   7.362  1.00  0.00     0.082 A 
HETATM   12  C   UNL     1      18.176  -0.860   6.395  1.00  0.00     0.028 A 
HETATM   13  C   UNL     1      17.327  -2.552   5.643  1.00  0.00     0.003 A 
HETATM   14  C   UNL     1      19.814   0.393   8.246  1.00  0.00     0.201 A 
HETATM   15  O   UNL     1      20.414  -0.159   9.333  1.00  0.00    -0.336 OA
HETATM   16  O   UNL     1      17.298  -0.147   3.340  1.00  0.00    -0.361 OA
HETATM   17  C   UNL     1      16.594  -2.982   4.901  1.00  0.00     0.004 A 
HETATM   18  C   UNL     1      16.531  -3.639   4.905  1.00  0.00     0.003 A 
HETATM   19  C   UNL     1      17.300  -3.074   5.621  1.00  0.00     0.003 A 
HETATM   20  C   UNL     1      19.604  -0.747   8.258  1.00  0.00     0.128 A 
HETATM   21  O   UNL     1      16.168  -3.973   3.354  1.00  0.00     0.000 OA
HETATM   22  C   UNL     1      18.194  -0.196   6.297  1.00  0.00     0.017 A 
HETATM   23  C   UNL     1      17.963  -1.608   5.878  1.00  0.00     0.030 A 
ENDROOT
TORSDOF 10
ENDMDL
MODEL 8
REMARK VINA RESULT:      -7.7     16.588     18.203
REMARK  10 active torsions:
REMARK  status: ('A' for Active; 'I' for Inactive)
REMARK    1  A    between atoms: O_2  and  C_3 
REMARK    2  A    between atoms: C_3  and  C_20 
REMARK    3  A    between atoms: C_3  and  C_22 
REMARK    4  A    between atoms: C_5  and  C_12 
REMARK    5  A    between atoms: C_9  and  C_18 
REMARK    6  A    between atoms: C_11  and  C_12 
REMARK    7  A    between atoms: C_12  and  C_13 
REMARK    8  A    between atoms: C_17  and  C_19 
REMARK    9  A    between atoms: C_18  and  O_21 
REMARK   10  A    between atoms: C_19  and  C_23 
ROOT
HETATM    1  C   UNL     1      23.478  -0.877  -5.896  1.00  0.00     0.076 A 
HETATM    2  O   UNL     1      24.682   1.407  -5.572  1.00  0.00     0.000 OA
HETATM    3  C   UNL     1      23.952  -0.265  -4.955  1.00  0.00     0.049 A 
HETATM    4  C   UNL     1      24.037   0.284  -0.772  1.00  0.00     0.142 C 
HETATM    5  C   UNL     1      23.820  -0.187  -3.533  1.00  0.00     0.076 A 
HETATM    6  O   UNL     1      25.196   2.840  -1.857  1.00  0.00     0.000 OA
HETATM    7  O   UNL     1      22.442  -3.825  -5.836  1.00  0.00    -0.198 OA
HETATM    8  C   UNL     1      25.831   4.275  -3.298  1.00  0.00     0.000 C 
HETATM    9  C   UNL     1      24.782   2.081  -1.827  1.00  0.00     0.030 A 
HETATM   10  C   UNL     1      23.503   0.487  -3.795  1.00  0.00     0.024 A 
HETATM   11  C   UNL     1      23.111  -1.497  -5.805  1.00  0.00     0.082 A 
HETATM   12  C   UNL     1      23.465  -0.256  -4.782  1.00  0.00     0.028 A 
HETATM   13  C   UNL     1      24.168   1.527  -4.091  1.00  0.00     0.003 A 
HETATM   14  C   UNL     1      23.144  -2.082  -6.841  1.00  0.00     0.201 A 
HETATM   15  O   UNL     1      23.467  -1.922  -8.152  1.00  0.00    -0.336 OA
HETATM   16  O   UNL     1      23.624  -0.544  -1.541  1.00  0.00    -0.361 OA
HETATM   17  C   UNL     1      24.199   2.249  -3.225  1.00  0.00     0.004 A 
HETATM   18  C   UNL     1      24.543   2.804  -3.324  1.00  0.00     0.003 A 
HETATM   19  C   UNL     1      24.467   1.951  -4.155  1.00  0.00     0.003 A 
HETATM   20  C   UNL     1      23.669  -1.058  -6.981  1.00  0.00     0.128 A 
HETATM   21  O   UNL     1      25.096   3.152  -1.834  1.00  0.00     0.000 OA
HETATM   22  C   UNL     1      23.121  -0.796  -4.579  1.00  0.00     0.017 A 
HETATM   23  C   UNL     1      23.962   0.417  -4.366  1.00  0.00     0.030 A 
ENDROOT
TORSDOF 10
ENDMDL
MODEL 9
REMARK VINA RESULT:      -7.5     14.398     15.915
REMARK  10 active torsions:
REMARK  status: ('A' for Active; 'I' for Inactive)
REMARK    1  A    between atoms: O_2  and  C_3 
REMARK    2  A    between atoms: C_3  and  C_20 
REMARK    3  A    between atoms: C_3  and  C_22 
REMARK    4  A    between atoms: C_5  and  C_12 
REMARK    5  A    between atoms: C_9  and  C_18 
REMARK    6  A    between atoms: C_11  and  C_12 
REMARK    7  A    between atoms: C_12  and  C_13 
REMARK    8  A    between atoms: C_17  and  C_19 
REMARK    9  A    between atoms: C_18  and  O_21 
REMARK   10  A    between atoms: C_19  and  C_23 
ROOT
HETATM    1  C   UNL     1      15.562 -10.431 -15.618  1.00  0.00     0.076 A 
HETATM    2  O   UNL     1      13.054 -10.598 -14.946  1.00  0.00     0.000 OA
HETATM    3  C   UNL     1      14.659 -11.227 -15.807  1.00  0.00     0.049 A 
HETATM    4  C   UNL     1      13.153 -14.376 -18.177  1.00  0.00     0.142 C 
HETATM    5  C   UNL     1      14.286 -12.246 -16.738  1.00  0.00     0.076 A 
HETATM    6  O   UNL     1      10.722 -13.326 -16.746  1.00  0.00     0.000 OA
HETATM    7  O   UNL     1      18.573 -10.868 -16.338  1.00  0.00    -0.198 OA
HETATM    8  C   UNL     1       9.554 -12.078 -15.476  1.00  0.00     0.000 C 
HETATM    9  C   UNL     1      11.527 -13.372 -17.060  1.00  0.00     0.030 A 
HETATM   10  C   UNL     1      13.780 -11.657 -16.882  1.00  0.00     0.024 A 
HETATM   11  C   UNL     1      16.211 -10.505 -15.936  1.00  0.00     0.082 A 
HETATM   12  C   UNL     1      14.720 -11.100 -16.304  1.00  0.00     0.028 A 
HETATM   13  C   UNL     1      12.715 -11.447 -16.226  1.00  0.00     0.003 A 
HETATM   14  C   UNL     1      16.997  -9.898 -15.280  1.00  0.00     0.201 A 
HETATM   15  O   UNL     1      17.076  -8.991 -14.270  1.00  0.00    -0.336 OA
HETATM   16  O   UNL     1      14.207 -13.817 -18.027  1.00  0.00    -0.361 OA
HETATM   17  C   UNL     1      11.824 -11.912 -16.738  1.00  0.00     0.004 A 
HETATM   18  C   UNL     1      11.244 -11.841 -16.431  1.00  0.00     0.003 A 
HETATM   19  C   UNL     1      12.260 -11.421 -15.968  1.00  0.00     0.003 A 
HETATM   20  C   UNL     1      15.941  -9.741 -14.827  1.00  0.00     0.128 A 
HETATM   21  O   UNL     1      10.445 -13.192 -16.858  1.00  0.00     0.000 OA
HETATM   22  C   UNL     1      15.263 -11.248 -16.672  1.00  0.00     0.017 A 
HETATM   23  C   UNL     1      13.875 -11.476 -16.175  1.00  0.00     0.030 A 
ENDROOT
TORSDOF 10
ENDMDL
