MODEL 1
REMARK VINA RESULT:      -9.9      0.000      0.000
REMARK  5 active torsions:
REMARK  status: ('A' for Active; 'I' for Inactive)
REMARK    1  A    between atoms: C_1  and  C_10 
REMARK    2  A    between atoms: C_3  and  N_12 
REMARK    3  A    between atoms: C_3  and  C_13 
REMARK    4  A    between atoms: N_16  and  N_18 
REMARK    5  A    between atoms: C_17  and  C_19 
ROOT
HETATM    1  C   UNL     1      11.869  -2.802  -4.616  1.00  0.00     0.046 A 
HETATM    2  C   UNL     1       6.577  -1.004  -5.202  1.00  0.00     0.032 A 
HETATM    3  C   UNL     1      12.575  -3.119  -4.652  1.00  0.00     0.068 A 
HETATM    4  N   UNL     1       9.130  -3.367  -4.685  1.00  0.00     0.067 N 
HETATM    5  C   UNL     1      10.529  -4.684  -4.410  1.00  0.00     0.279 C 
HETATM    6  N   UNL     1       7.339  -2.968  -4.829  1.00  0.00    -0.107 NA
HETATM    7  C   UNL     1       6.082  -1.773  -5.082  1.00  0.00     0.155 A 
HETATM    8  C   UNL     1       9.794  -2.547  -4.789  1.00  0.00     0.168 A 
HETATM    9  C   UNL     1       8.430  -1.472  -5.054  1.00  0.00     0.056 A 
HETATM   10  C   UNL     1      11.397  -2.544  -5.117  1.00  0.00     0.046 A 
HETATM   11  C   UNL     1       9.520  -1.511  -5.307  1.00  0.00     0.057 A 
HETATM   12  C   UNL     1       8.690  -0.679  -5.212  1.00  0.00     0.035 A 
HETATM   13  C   UNL     1       9.448  -1.924  -5.152  1.00  0.00     0.167 A 
HETATM   14  N   UNL     1      12.476  -3.224  -4.866  1.00  0.00     0.000 N 
HETATM   15  C   UNL     1      11.509  -2.762  -4.880  1.00  0.00     0.046 A 
ENDROOT
BRANCH   3  16
HETATM   16  N   UNL     1      14.489  -3.759  -4.441  1.00  0.00    -0.189 NA
HETATM   17  C   UNL     1      15.417  -3.917  -4.242  1.00  0.00     0.164 A 
HETATM   18  C   UNL     1      17.385  -4.821  -4.014  1.00  0.00     0.040 C 
HETATM   19  N   UNL     1      14.497  -3.369  -4.251  1.00  0.00    -0.130 NA
ENDBRANCH   3  16
TORSDOF 5
ENDMDL
MODEL 2
REMARK VINA RESULT:      -8.8      9.225     10.853
REMARK  5 active torsions:
REMARK  status: ('A' for Active; 'I' for Inactive)
REMARK    1  A    between atoms: C_1  and  C_10 
REMARK    2  A    between atoms: C_3  and  N_12 
REMARK    3  A    between atoms: C_3  and  C_13 
REMARK    4  A    between atoms: N_16  and  N_18 
REMARK    5  A    between atoms: C_17  and  C_19 
ROOT
HETATM    1  C   UNL     1       1.487  -4.086  -1.319  1.00  0.00     0.046 A 
HETATM    2  C   UNL     1      -1.381   0.331   0.643  1.00  0.00     0.032 A 
HETATM    3  C   UNL     1       1.970  -4.601  -1.639  1.00  0.00     0.068 A 
HETATM    4  N   UNL     1      -0.005  -1.772  -1.817  1.00  0.00     0.067 N 
HETATM    5  C   UNL     1       0.759  -2.917  -3.186  1.00  0.00     0.279 C 
HETATM    6  N   UNL     1      -0.993  -0.285  -1.370  1.00  0.00    -0.107 NA
HETATM    7  C   UNL     1      -1.675   0.746  -0.127  1.00  0.00     0.155 A 
HETATM    8  C   UNL     1       0.371  -2.337  -1.003  1.00  0.00     0.168 A 
HETATM    9  C   UNL     1      -0.351  -1.199   0.125  1.00  0.00     0.056 A 
HETATM   10  C   UNL     1       1.578  -3.442  -0.975  1.00  0.00     0.046 A 
HETATM   11  C   UNL     1       0.499  -1.929   0.107  1.00  0.00     0.057 A 
HETATM   12  C   UNL     1      -0.166  -1.405   0.928  1.00  0.00     0.035 A 
HETATM   13  C   UNL     1       0.382  -1.915  -0.324  1.00  0.00     0.167 A 
HETATM   14  N   UNL     1       2.095  -4.385  -1.706  1.00  0.00     0.000 N 
HETATM   15  C   UNL     1       1.480  -3.647  -1.230  1.00  0.00     0.046 A 
ENDROOT
BRANCH   3  16
HETATM   16  N   UNL     1       3.006  -6.199  -2.338  1.00  0.00    -0.189 NA
HETATM   17  C   UNL     1       3.337  -7.032  -2.687  1.00  0.00     0.164 A 
HETATM   18  C   UNL     1       4.597  -8.594  -3.535  1.00  0.00     0.040 C 
HETATM   19  N   UNL     1       2.600  -6.350  -2.316  1.00  0.00    -0.130 NA
ENDBRANCH   3  16
TORSDOF 5
ENDMDL
MODEL 3
REMARK VINA RESULT:      -8.3      7.854     11.314
REMARK  5 active torsions:
REMARK  status: ('A' for Active; 'I' for Inactive)
REMARK    1  A    between atoms: C_1  and  C_10 
REMARK    2  A    between atoms: C_3  and  N_12 
REMARK    3  A    between atoms: C_3  and  C_13 
REMARK    4  A    between atoms: N_16  and  N_18 
REMARK    5  A    between atoms: C_17  and  C_19 
ROOT
HETATM    1  C   UNL     1       1.297  -3.238  -1.249  1.00  0.00     0.046 A 
HETATM    2  C   UNL     1       4.583  -7.672  -2.314  1.00  0.00     0.032 A 
HETATM    3  C   UNL     1       0.807  -2.638  -1.235  1.00  0.00     0.068 A 
HETATM    4  N   UNL     1       3.476  -4.347  -2.609  1.00  0.00     0.067 N 
HETATM    5  C   UNL     1       2.870  -2.512  -2.792  1.00  0.00     0.279 C 
HETATM    6  N   UNL     1       4.668  -5.672  -3.069  1.00  0.00    -0.107 NA
HETATM    7  C   UNL     1       5.206  -7.332  -2.902  1.00  0.00     0.155 A 
HETATM    8  C   UNL     1       2.722  -4.626  -1.920  1.00  0.00     0.168 A 
HETATM    9  C   UNL     1       3.361  -6.262  -1.875  1.00  0.00     0.056 A 
HETATM   10  C   UNL     1       1.297  -3.893  -1.586  1.00  0.00     0.046 A 
HETATM   11  C   UNL     1       2.384  -5.745  -1.696  1.00  0.00     0.057 A 
HETATM   12  C   UNL     1       2.888  -6.763  -1.379  1.00  0.00     0.035 A 
HETATM   13  C   UNL     1       2.626  -5.419  -1.883  1.00  0.00     0.167 A 
HETATM   14  N   UNL     1       0.778  -2.706  -1.483  1.00  0.00     0.000 N 
HETATM   15  C   UNL     1       1.404  -3.574  -1.527  1.00  0.00     0.046 A 
ENDROOT
BRANCH   3  16
HETATM   16  N   UNL     1      -0.383  -1.043  -0.844  1.00  0.00    -0.189 NA
HETATM   17  C   UNL     1      -0.917  -0.326  -0.489  1.00  0.00     0.164 A 
HETATM   18  C   UNL     1      -2.101   1.488  -0.258  1.00  0.00     0.040 C 
HETATM   19  N   UNL     1      -0.316  -1.211  -0.450  1.00  0.00    -0.130 NA
ENDBRANCH   3  16
TORSDOF 5
ENDMDL
MODEL 4
REMARK VINA RESULT:      -8.2      8.941     11.631
REMARK  5 active torsions:
REMARK  status: ('A' for Active; 'I' for Inactive)
REMARK    1  A    between atoms: C_1  and  C_10 
REMARK    2  A    between atoms: C_3  and  N_12 
REMARK    3  A    between atoms: C_3  and  C_13 
REMARK    4  A    between atoms: N_16  and  N_18 
REMARK    5  A    between atoms: C_17  and  C_19 
ROOT
HETATM    1  C   UNL     1       1.083  -2.325  -0.794  1.00  0.00     0.046 A 
HETATM    2  C   UNL     1      -2.444   1.916   0.282  1.00  0.00     0.032 A 
HETATM    3  C   UNL     1       1.475  -2.988  -0.880  1.00  0.00     0.068 A 
HETATM    4  N   UNL     1      -0.221  -0.693   1.067  1.00  0.00     0.067 N 
HETATM    5  C   UNL     1       0.995  -2.139   1.516  1.00  0.00     0.279 C 
HETATM    6  N   UNL     1      -1.324   0.674   1.617  1.00  0.00    -0.107 NA
HETATM    7  C   UNL     1      -2.425   1.974   1.203  1.00  0.00     0.155 A 
HETATM    8  C   UNL     1      -0.155  -0.839   0.020  1.00  0.00     0.168 A 
HETATM    9  C   UNL     1      -1.293   0.475  -0.238  1.00  0.00     0.056 A 
HETATM   10  C   UNL     1       0.371  -2.143  -0.817  1.00  0.00     0.046 A 
HETATM   11  C   UNL     1      -0.951  -0.448  -0.773  1.00  0.00     0.057 A 
HETATM   12  C   UNL     1      -1.467   0.573  -1.064  1.00  0.00     0.035 A 
HETATM   13  C   UNL     1      -0.768  -0.504  -0.369  1.00  0.00     0.167 A 
HETATM   14  N   UNL     1       1.268  -3.081  -0.756  1.00  0.00     0.000 N 
HETATM   15  C   UNL     1       0.673  -2.195  -0.668  1.00  0.00     0.046 A 
ENDROOT
BRANCH   3  16
HETATM   16  N   UNL     1       2.748  -4.517  -1.278  1.00  0.00    -0.189 NA
HETATM   17  C   UNL     1       3.447  -5.175  -1.334  1.00  0.00     0.164 A 
HETATM   18  C   UNL     1       4.625  -6.944  -1.810  1.00  0.00     0.040 C 
HETATM   19  N   UNL     1       2.965  -4.285  -0.982  1.00  0.00    -0.130 NA
ENDBRANCH   3  16
TORSDOF 5
ENDMDL
MODEL 5
REMARK VINA RESULT:      -8.1      7.736     10.140
REMARK  5 active torsions:
REMARK  status: ('A' for Active; 'I' for Inactive)
REMARK    1  A    between atoms: C_1  and  C_10 
REMARK    2  A    between atoms: C_3  and  N_12 
REMARK    3  A    between atoms: C_3  and  C_13 
REMARK    4  A    between atoms: N_16  and  N_18 
REMARK    5  A    between atoms: C_17  and  C_19 
ROOT
HETATM    1  C   UNL     1       3.360  -5.248  -0.965  1.00  0.00     0.046 A 
HETATM    2  C   UNL     1       5.684  -9.420  -3.928  1.00  0.00     0.032 A 
HETATM    3  C   UNL     1       2.940  -4.678  -0.652  1.00  0.00     0.068 A 
HETATM    4  N   UNL     1       4.538  -6.148  -3.338  1.00  0.00     0.067 N 
HETATM    5  C   UNL     1       3.899  -4.341  -3.032  1.00  0.00     0.279 C 
HETATM    6  N   UNL     1       5.339  -7.375  -4.453  1.00  0.00    -0.107 NA
HETATM    7  C   UNL     1       5.909  -9.010  -4.723  1.00  0.00     0.155 A 
HETATM    8  C   UNL     1       4.253  -6.511  -2.384  1.00  0.00     0.168 A 
HETATM    9  C   UNL     1       4.846  -8.109  -2.810  1.00  0.00     0.056 A 
HETATM   10  C   UNL     1       3.195  -5.879  -1.306  1.00  0.00     0.046 A 
HETATM   11  C   UNL     1       4.095  -7.658  -2.111  1.00  0.00     0.057 A 
HETATM   12  C   UNL     1       4.704  -8.666  -2.184  1.00  0.00     0.035 A 
HETATM   13  C   UNL     1       4.201  -7.309  -2.369  1.00  0.00     0.167 A 
HETATM   14  N   UNL     1       2.788  -4.731  -0.854  1.00  0.00     0.000 N 
HETATM   15  C   UNL     1       3.313  -5.559  -1.285  1.00  0.00     0.046 A 
ENDROOT
BRANCH   3  16
HETATM   16  N   UNL     1       2.101  -3.177   0.425  1.00  0.00    -0.189 NA
HETATM   17  C   UNL     1       1.840  -2.490   1.047  1.00  0.00     0.164 A 
HETATM   18  C   UNL     1       0.878  -0.784   1.999  1.00  0.00     0.040 C 
HETATM   19  N   UNL     1       2.424  -3.311   0.683  1.00  0.00    -0.130 NA
ENDBRANCH   3  16
TORSDOF 5
ENDMDL
MODEL 6
REMARK VINA RESULT:      -7.9      1.559      6.524
REMARK  5 active torsions:
REMARK  status: ('A' for Active; 'I' for Inactive)
REMARK    1  A    between atoms: C_1  and  C_10 
REMARK    2  A    between atoms: C_3  and  N_12 
REMARK    3  A    between atoms: C_3  and  C_13 
REMARK    4  A    between atoms: N_16  and  N_18 
REMARK    5  A    between atoms: C_17  and  C_19 
ROOT
HETATM    1  C   UNL     1       9.436  -4.193  -4.128  1.00  0.00     0.046 A 
HETATM    2  C   UNL     1      15.041  -4.549  -3.923  1.00  0.00     0.032 A 
HETATM    3  C   UNL     1       8.680  -4.143  -4.293  1.00  0.00     0.068 A 
HETATM    4  N   UNL     1      11.939  -3.045  -4.620  1.00  0.00     0.067 N 
HETATM    5  C   UNL     1      10.235  -2.207  -5.021  1.00  0.00     0.279 C 
HETATM    6  N   UNL     1      13.778  -2.967  -4.617  1.00  0.00    -0.107 NA
HETATM    7  C   UNL     1      15.313  -3.733  -4.256  1.00  0.00     0.155 A 
HETATM    8  C   UNL     1      11.516  -3.939  -4.239  1.00  0.00     0.168 A 
HETATM    9  C   UNL     1      13.125  -4.586  -3.957  1.00  0.00     0.056 A 
HETATM   10  C   UNL     1      10.006  -4.540  -4.437  1.00  0.00     0.046 A 
HETATM   11  C   UNL     1      12.091  -4.976  -4.139  1.00  0.00     0.057 A 
HETATM   12  C   UNL     1      13.089  -5.379  -3.656  1.00  0.00     0.035 A 
HETATM   13  C   UNL     1      12.042  -4.541  -4.232  1.00  0.00     0.167 A 
HETATM   14  N   UNL     1       8.772  -4.145  -4.535  1.00  0.00     0.000 N 
HETATM   15  C   UNL     1       9.820  -4.269  -4.347  1.00  0.00     0.046 A 
ENDROOT
BRANCH   3  16
HETATM   16  N   UNL     1       6.656  -4.023  -4.363  1.00  0.00    -0.189 NA
HETATM   17  C   UNL     1       5.702  -4.053  -4.241  1.00  0.00     0.164 A 
HETATM   18  C   UNL     1       3.558  -3.714  -4.414  1.00  0.00     0.040 C 
HETATM   19  N   UNL     1       6.726  -4.276  -4.016  1.00  0.00    -0.130 NA
ENDBRANCH   3  16
TORSDOF 5
ENDMDL
MODEL 7
REMARK VINA RESULT:      -7.7      2.507      3.510
REMARK  5 active torsions:
REMARK  status: ('A' for Active; 'I' for Inactive)
REMARK    1  A    between atoms: C_1  and  C_10 
REMARK    2  A    between atoms: C_3  and  N_12 
REMARK    3  A    between atoms: C_3  and  C_13 
REMARK    4  A    between atoms: N_16  and  N_18 
REMARK    5  A    between atoms: C_17  and  C_19 
ROOT
HETATM    1  C   UNL     1       8.770  -4.572  -4.465  1.00  0.00     0.046 A 
HETATM    2  C   UNL     1       3.939  -1.763  -5.064  1.00  0.00     0.032 A 
HETATM    3  C   UNL     1       9.455  -4.878  -4.272  1.00  0.00     0.068 A 
HETATM    4  N   UNL     1       7.431  -2.170  -4.982  1.00  0.00     0.067 N 
HETATM    5  C   UNL     1       9.361  -2.377  -4.928  1.00  0.00     0.279 C 
HETATM    6  N   UNL     1       5.963  -1.089  -5.234  1.00  0.00    -0.107 NA
HETATM    7  C   UNL     1       4.220  -0.910  -5.276  1.00  0.00     0.155 A 
HETATM    8  C   UNL     1       7.223  -3.183  -4.749  1.00  0.00     0.168 A 
HETATM    9  C   UNL     1       5.500  -2.844  -4.800  1.00  0.00     0.056 A 
HETATM   10  C   UNL     1       8.196  -4.317  -4.081  1.00  0.00     0.046 A 
HETATM   11  C   UNL     1       6.189  -3.583  -4.317  1.00  0.00     0.057 A 
HETATM   12  C   UNL     1       5.045  -3.533  -4.601  1.00  0.00     0.035 A 
HETATM   13  C   UNL     1       6.477  -3.281  -4.478  1.00  0.00     0.167 A 
HETATM   14  N   UNL     1       9.437  -4.703  -4.083  1.00  0.00     0.000 N 
HETATM   15  C   UNL     1       8.468  -4.292  -4.286  1.00  0.00     0.046 A 
ENDROOT
BRANCH   3  16
HETATM   16  N   UNL     1      11.194  -5.901  -4.055  1.00  0.00    -0.189 NA
HETATM   17  C   UNL     1      11.929  -6.520  -4.025  1.00  0.00     0.164 A 
HETATM   18  C   UNL     1      13.906  -7.417  -3.841  1.00  0.00     0.040 C 
HETATM   19  N   UNL     1      10.918  -6.208  -4.191  1.00  0.00    -0.130 NA
ENDBRANCH   3  16
TORSDOF 5
ENDMDL
MODEL 8
REMARK VINA RESULT:      -7.6      4.462      6.514
REMARK  5 active torsions:
REMARK  status: ('A' for Active; 'I' for Inactive)
REMARK    1  A    between atoms: C_1  and  C_10 
REMARK    2  A    between atoms: C_3  and  N_12 
REMARK    3  A    between atoms: C_3  and  C_13 
REMARK    4  A    between atoms: N_16  and  N_18 
REMARK    5  A    between atoms: C_17  and  C_19 
ROOT
HETATM    1  C   UNL     1       5.841  -4.732  -3.799  1.00  0.00     0.046 A 
HETATM    2  C   UNL     1       0.717  -2.744  -2.626  1.00  0.00     0.032 A 
HETATM    3  C   UNL     1       6.480  -5.103  -4.031  1.00  0.00     0.068 A 
HETATM    4  N   UNL     1       3.357  -5.065  -2.555  1.00  0.00     0.067 N 
HETATM    5  C   UNL     1       4.801  -6.362  -2.517  1.00  0.00     0.279 C 
HETATM    6  N   UNL     1       1.655  -4.579  -2.051  1.00  0.00    -0.107 NA
HETATM    7  C   UNL     1       0.354  -3.405  -2.094  1.00  0.00     0.155 A 
HETATM    8  C   UNL     1       3.876  -4.366  -3.159  1.00  0.00     0.168 A 
HETATM    9  C   UNL     1       2.479  -3.301  -3.133  1.00  0.00     0.056 A 
HETATM   10  C   UNL     1       5.190  -4.588  -4.109  1.00  0.00     0.046 A 
HETATM   11  C   UNL     1       3.362  -3.500  -3.793  1.00  0.00     0.057 A 
HETATM   12  C   UNL     1       2.611  -2.609  -3.608  1.00  0.00     0.035 A 
HETATM   13  C   UNL     1       3.381  -3.845  -3.509  1.00  0.00     0.167 A 
HETATM   14  N   UNL     1       6.304  -5.255  -4.144  1.00  0.00     0.000 N 
HETATM   15  C   UNL     1       5.401  -4.738  -3.888  1.00  0.00     0.046 A 
ENDROOT
BRANCH   3  16
HETATM   16  N   UNL     1       8.332  -5.812  -4.459  1.00  0.00    -0.189 NA
HETATM   17  C   UNL     1       9.266  -6.022  -4.550  1.00  0.00     0.164 A 
HETATM   18  C   UNL     1      11.158  -6.996  -5.019  1.00  0.00     0.040 C 
HETATM   19  N   UNL     1       8.417  -5.461  -4.219  1.00  0.00    -0.130 NA
ENDBRANCH   3  16
TORSDOF 5
ENDMDL
MODEL 9
REMARK VINA RESULT:      -7.5      4.119      6.981
REMARK  5 active torsions:
REMARK  status: ('A' for Active; 'I' for Inactive)
REMARK    1  A    between atoms: C_1  and  C_10 
REMARK    2  A    between atoms: C_3  and  N_12 
REMARK    3  A    between atoms: C_3  and  C_13 
REMARK    4  A    between atoms: N_16  and  N_18 
REMARK    5  A    between atoms: C_17  and  C_19 
ROOT
HETATM    1  C   UNL     1       7.782  -7.057  -3.843  1.00  0.00     0.046 A 
HETATM    2  C   UNL     1      11.671  -3.076  -4.623  1.00  0.00     0.032 A 
HETATM    3  C   UNL     1       7.207  -7.577  -3.865  1.00  0.00     0.068 A 
HETATM    4  N   UNL     1       8.418  -4.369  -4.285  1.00  0.00     0.067 N 
HETATM    5  C   UNL     1       6.616  -5.070  -4.112  1.00  0.00     0.279 C 
HETATM    6  N   UNL     1       9.538  -2.930  -4.533  1.00  0.00    -0.107 NA
HETATM    7  C   UNL     1      11.168  -2.305  -4.693  1.00  0.00     0.155 A 
HETATM    8  C   UNL     1       8.894  -5.309  -4.174  1.00  0.00     0.168 A 
HETATM    9  C   UNL     1      10.462  -4.543  -4.377  1.00  0.00     0.056 A 
HETATM   10  C   UNL     1       8.272  -6.814  -4.335  1.00  0.00     0.046 A 
HETATM   11  C   UNL     1      10.005  -5.555  -4.524  1.00  0.00     0.057 A 
HETATM   12  C   UNL     1      11.088  -5.117  -4.364  1.00  0.00     0.035 A 
HETATM   13  C   UNL     1       9.643  -5.301  -4.453  1.00  0.00     0.167 A 
HETATM   14  N   UNL     1       7.180  -7.481  -4.103  1.00  0.00     0.000 N 
HETATM   15  C   UNL     1       8.000  -6.791  -4.130  1.00  0.00     0.046 A 
ENDROOT
BRANCH   3  16
HETATM   16  N   UNL     1       5.810  -9.021  -3.582  1.00  0.00    -0.189 NA
HETATM   17  C   UNL     1       5.171  -9.672  -3.276  1.00  0.00     0.164 A 
HETATM   18  C   UNL     1       3.569 -11.143  -3.166  1.00  0.00     0.040 C 
HETATM   19  N   UNL     1       5.940  -8.933  -3.178  1.00  0.00    -0.130 NA
ENDBRANCH   3  16
TORSDOF 5
ENDMDL
